
     RDKit          3D

  8  7  0  0  0  0  0  0  0  0999 V2000
   -1.5564    0.2902    0.3623 O   0  0  0  0  0  0  0  0  0  1  0  0
   -0.2867   -0.1991    0.6331 C   0  0  0  0  0  0  0  0  0  2  0  0
    0.7396   -0.1196   -0.2623 C   0  0  0  0  0  0  0  0  0  3  0  0
    0.6933    0.3945   -1.4357 O   0  0  0  0  0  0  0  0  0  4  0  0
   -1.5406    0.6664   -0.5337 H   0  0  0  0  0  0  0  0  0  5  0  0
   -0.2041   -0.6377    1.6066 H   0  0  0  0  0  0  0  0  0  6  0  0
    0.4563    0.0470   -0.4588 H   0  0  0  0  0  0  0  0  0  7  0  0
    1.6979   -0.5569    0.1011 H   0  0  0  0  0  0  0  0  0  8  0  0
  2  1  1  0
  3  2  2  0
  4  3  1  0
  5  1  1  0
  6  2  1  0
  7  4  1  0
  8  3  1  0
M  END
