
     RDKit          3D

  8  6  0  0  0  0  0  0  0  0999 V2000
   -1.2849    0.3581   -0.2514 O   0  0  0  0  0  0  0  0  0  1  0  0
   -1.2366    0.2804    0.9283 C   0  0  0  0  0  0  0  0  0  2  0  0
    1.2154   -0.3602   -0.6417 C   0  0  0  0  0  0  0  0  0  3  0  0
    1.1612    0.7676   -1.0744 O   0  0  0  0  0  0  0  0  0  4  0  0
   -0.9311    0.4168   -0.1260 H   0  0  0  0  0  0  0  0  0  5  0  0
   -1.4059    0.1718    2.0287 H   0  0  0  0  0  0  0  0  0  6  0  0
    0.4670   -1.1481   -0.8348 H   0  0  0  0  0  0  0  0  0  7  0  0
    2.0944   -0.6984   -0.0615 H   0  0  0  0  0  0  0  0  0  8  0  0
  2  1  2  0
  4  3  2  0
  5  2  1  0
  6  2  1  0
  7  3  1  0
  8  3  1  0
M  END
