
     RDKit          3D

  8  7  0  0  0  0  0  0  0  0999 V2000
   -1.2517    0.6224   -0.3879 O   0  0  0  0  0  0  0  0  0  1  0  0
   -0.3204   -0.2424    0.2131 C   0  0  0  0  0  0  0  0  0  2  0  0
    1.0833    0.1051   -0.2070 C   0  0  0  0  0  0  0  0  0  3  0  0
    1.3846    0.9988   -0.9547 O   0  0  0  0  0  0  0  0  0  4  0  0
   -2.1329    0.3702   -0.0930 H   0  0  0  0  0  0  0  0  0  5  0  0
   -0.3394   -0.2013    1.3131 H   0  0  0  0  0  0  0  0  0  6  0  0
   -0.4765   -1.2990   -0.0537 H   0  0  0  0  0  0  0  0  0  7  0  0
    1.8507   -0.5590    0.2490 H   0  0  0  0  0  0  0  0  0  8  0  0
  2  1  1  0
  3  2  1  0
  4  3  2  0
  5  1  1  0
  6  2  1  0
  7  2  1  0
  8  3  1  0
M  END
