
     RDKit          3D

  8  7  0  0  0  0  0  0  0  0999 V2000
   -1.4171    0.1127    0.9221 O   0  0  0  0  0  0  0  0  0  1  0  0
   -0.1306   -0.2917    0.5864 C   0  0  0  0  0  0  0  0  0  2  0  0
    0.6333    0.0483   -0.5551 C   0  0  0  0  0  0  0  0  0  3  0  0
    0.3426    0.7859   -1.5285 O   0  0  0  0  0  0  0  0  0  4  0  0
   -1.7235    0.6955    0.2133 H   0  0  0  0  0  0  0  0  0  5  0  0
    0.2446   -0.9472    1.3632 H   0  0  0  0  0  0  0  0  0  6  0  0
    0.3434    0.0395   -0.3175 H   0  0  0  0  0  0  0  0  0  7  0  0
    1.6828   -0.3883   -0.6556 H   0  0  0  0  0  0  0  0  0  8  0  0
  2  1  1  0
  3  2  1  0
  4  3  2  0
  5  1  1  0
  6  2  1  0
  7  2  1  0
  8  3  1  0
M  END
