
     RDKit          3D

  8  7  0  0  0  0  0  0  0  0999 V2000
   -1.5779    0.4211    0.4165 O   0  0  0  0  0  0  0  0  0  1  0  0
   -0.3164   -0.1386    0.5792 C   0  0  0  0  0  0  0  0  0  2  0  0
    0.7712   -0.1450   -0.3259 C   0  0  0  0  0  0  0  0  0  3  0  0
    0.8627    0.3445   -1.4783 O   0  0  0  0  0  0  0  0  0  4  0  0
   -1.5948    0.8280   -0.4612 H   0  0  0  0  0  0  0  0  0  5  0  0
   -0.2629   -0.6039    1.5561 H   0  0  0  0  0  0  0  0  0  6  0  0
    0.4288   -0.0749   -0.1901 H   0  0  0  0  0  0  0  0  0  7  0  0
    1.7383   -0.6614   -0.0091 H   0  0  0  0  0  0  0  0  0  8  0  0
  2  1  1  0
  3  2  1  0
  4  3  2  0
  5  1  1  0
  6  2  1  0
  7  2  1  0
  8  3  1  0
M  END
