
     RDKit          3D

  8  5  0  0  0  0  0  0  0  0999 V2000
   -1.7117    0.8577    0.1456 O   0  0  0  0  0  0  0  0  0  1  0  0
   -0.6112    0.2700   -0.4364 C   0  0  0  0  0  0  0  0  0  2  0  0
    0.6401    0.1895   -0.6201 C   0  0  0  0  0  3  0  0  0  3  0  0
    1.7906    0.0925   -0.9641 O   0  0  0  0  0  1  0  0  0  4  0  0
   -1.8653    0.3068    0.9261 H   0  0  0  0  0  0  0  0  0  5  0  0
    0.5668   -1.3355    0.9597 H   0  0  0  0  0 15  0  0  0  6  0  0
    0.3622    0.2460   -0.6799 H   0  0  0  0  0  0  0  0  0  7  0  0
    0.9508   -0.7421    0.8154 H   0  0  0  0  0 15  0  0  0  8  0  0
  2  1  1  0
  3  2  2  0
  4  3  1  0
  5  1  1  0
  7  2  1  0
M  CHG  4   3  -1   4  -1   6   1   8   1
M  END
