
     RDKit          3D

  8  7  0  0  0  0  0  0  0  0999 V2000
   -1.4393    0.4190    0.1020 O   0  0  0  0  0  0  0  0  0  1  0  0
   -0.3170   -0.3485    0.4304 C   0  0  0  0  0  0  0  0  0  2  0  0
    0.8843    0.0408   -0.3794 C   0  0  0  0  0  0  0  0  0  3  0  0
    0.8320    0.9237   -1.2085 O   0  0  0  0  0  0  0  0  0  4  0  0
   -1.1362    1.0285   -0.5934 H   0  0  0  0  0  0  0  0  0  5  0  0
   -0.0569   -0.2470    1.4954 H   0  0  0  0  0  0  0  0  0  6  0  0
   -0.5018   -1.4222    0.2706 H   0  0  0  0  0  0  0  0  0  7  0  0
    1.8225   -0.5143   -0.1868 H   0  0  0  0  0  0  0  0  0  8  0  0
  2  1  1  0
  3  2  1  0
  4  3  2  0
  5  1  1  0
  6  2  1  0
  7  2  1  0
  8  3  1  0
M  END
