
     RDKit          3D

  8  7  0  0  0  0  0  0  0  0999 V2000
   -1.6847    0.0626    0.6455 O   0  0  0  0  0  0  0  0  0  1  0  0
   -0.4690    0.4501    0.1204 C   0  0  0  0  0  0  0  0  0  2  0  0
    0.4915   -0.4428   -0.0941 C   0  0  0  0  0  0  0  0  0  3  0  0
    1.7079   -0.0558   -0.6175 O   0  0  0  0  0  0  0  0  0  4  0  0
   -2.2380    0.8456    0.7240 H   0  0  0  0  0  0  0  0  0  5  0  0
   -0.3247    1.5012   -0.1090 H   0  0  0  0  0  0  0  0  0  6  0  0
    0.3470   -1.4937    0.1360 H   0  0  0  0  0  0  0  0  0  7  0  0
    2.2595   -0.8398   -0.6987 H   0  0  0  0  0  0  0  0  0  8  0  0
  2  1  1  0
  3  2  2  0
  4  3  1  0
  5  1  1  0
  6  2  1  0
  7  3  1  0
  8  4  1  0
M  END
