
     RDKit          3D

  8  8  0  0  0  0  0  0  0  0999 V2000
   -1.4736    0.1678   -0.2490 O   0  0  0  0  0  0  0  0  0  1  0  0
   -0.1988    0.2711    0.2847 C   0  0  1  0  0  0  0  0  0  2  0  0
    0.8343   -0.6086   -0.2233 C   0  0  0  0  0  0  0  0  0  3  0  0
    0.8123    0.7950   -0.5510 O   0  0  0  0  0  0  0  0  0  4  0  0
   -1.9613    0.9709   -0.0255 H   0  0  0  0  0  0  0  0  0  5  0  0
   -0.1644    0.6133    1.3186 H   0  0  0  0  0  0  0  0  0  6  0  0
    0.5952   -1.2742   -1.0445 H   0  0  0  0  0  0  0  0  0  7  0  0
    1.6482   -0.9264    0.4199 H   0  0  0  0  0  0  0  0  0  8  0  0
  2  1  1  0
  3  2  1  0
  4  3  1  0
  4  2  1  0
  5  1  1  0
  2  6  1  1
  7  3  1  0
  8  3  1  0
M  END
