
     RDKit          3D

  8  7  0  0  0  0  0  0  0  0999 V2000
   -1.6413    0.0591    1.2103 O   0  0  0  0  0  1  0  0  0  1  0  0
   -0.4654   -0.2027    0.8668 C   0  0  0  0  0  0  0  0  0  2  0  0
    0.4755   -0.0752   -0.2076 C   0  0  0  0  0  0  0  0  0  3  0  0
    0.4180    0.4813   -1.4749 O   0  0  0  0  0  3  0  0  0  4  0  0
   -0.3888    0.9093   -1.8221 H   0  0  0  0  0  0  0  0  0  5  0  0
    0.1069   -0.7314    1.6493 H   0  0  0  0  0  0  0  0  0  6  0  0
    0.1009    0.0320   -0.1515 H   0  0  0  0  0  0  0  0  0  7  0  0
    1.4791   -0.4699   -0.1020 H   0  0  0  0  0  0  0  0  0  8  0  0
  2  1  1  0
  3  2  1  0
  4  3  2  0
  5  4  1  0
  6  2  1  0
  7  2  1  0
  8  3  1  0
M  CHG  2   1  -1   4   1
M  END
