
     RDKit          3D

  8  8  0  0  0  0  0  0  0  0999 V2000
   -1.4810    0.1030   -0.3149 O   0  0  0  0  0  0  0  0  0  1  0  0
   -0.2394    0.2055    0.2923 C   0  0  1  0  0  0  0  0  0  2  0  0
    0.8598   -0.5656   -0.2524 C   0  0  0  0  0  0  0  0  0  3  0  0
    0.7817    0.8627   -0.4294 O   0  0  0  0  0  0  0  0  0  4  0  0
   -2.0198    0.8523   -0.0305 H   0  0  0  0  0  0  0  0  0  5  0  0
   -0.2706    0.4348    1.3571 H   0  0  0  0  0  0  0  0  0  6  0  0
    0.6928   -1.1481   -1.1511 H   0  0  0  0  0  0  0  0  0  7  0  0
    1.6579   -0.9140    0.3947 H   0  0  0  0  0  0  0  0  0  8  0  0
  2  1  1  0
  3  2  1  0
  4  3  1  0
  4  2  1  0
  5  1  1  0
  2  6  1  1
  7  3  1  0
  8  3  1  0
M  END
