
     RDKit          3D

  8  7  0  0  0  0  0  0  0  0999 V2000
   -1.6641    0.1536    1.0052 O   0  0  0  0  0  1  0  0  0  1  0  0
   -0.5055   -0.2117    0.5848 C   0  0  0  0  0  0  0  0  0  2  0  0
    0.2174    0.5760   -0.4080 C   0  0  0  0  0  0  0  0  0  3  0  0
    0.9766    0.0231   -1.3178 O   0  0  0  0  0  3  0  0  0  4  0  0
   -0.3762   -1.2901    0.2516 H   0  0  0  0  0  0  0  0  0  5  0  0
    0.1766    1.6570   -0.3977 H   0  0  0  0  0  0  0  0  0  6  0  0
    0.3512   -0.1595    1.3698 H   0  0  0  0  0  0  0  0  0  7  0  0
    0.9234   -0.9444   -1.2245 H   0  0  0  0  0  0  0  0  0  8  0  0
  2  1  1  0
  3  2  1  0
  4  3  2  0
  5  2  1  0
  6  3  1  0
  7  2  1  0
  8  4  1  0
M  CHG  2   1  -1   4   1
M  END
