
     RDKit          3D

  8  6  0  0  0  0  0  0  0  0999 V2000
   -1.5003   -0.0170    1.5212 O   0  0  0  0  0  0  0  0  0  1  0  0
   -0.5461   -0.7352    1.3646 C   0  0  0  0  0  0  0  0  0  2  0  0
    0.5583    0.7382   -1.3400 C   0  0  0  0  0  0  0  0  0  3  0  0
    1.7021    0.8395   -0.9761 O   0  0  0  0  0  0  0  0  0  4  0  0
   -0.6184   -1.6990    0.8216 H   0  0  0  0  0  0  0  0  0  5  0  0
   -0.2153    1.4877   -1.0816 H   0  0  0  0  0  0  0  0  0  6  0  0
    0.4600   -0.4782    1.7503 H   0  0  0  0  0  0  0  0  0  7  0  0
    0.2107   -0.1150   -1.9566 H   0  0  0  0  0  0  0  0  0  8  0  0
  2  1  2  0
  4  3  2  0
  5  2  1  0
  6  3  1  0
  7  2  1  0
  8  3  1  0
M  END
