
     RDKit          3D

  8  8  0  0  0  0  0  0  0  0999 V2000
    0.9343   -0.3583   -0.6977 O   0  0  0  0  0  0  0  0  0  1  0  0
   -0.4880   -0.5683   -0.5281 C   0  0  0  0  0  0  0  0  0  2  0  0
    0.3352   -0.0180    0.5366 C   0  0  2  0  0  0  0  0  0  3  0  0
    0.3023    1.3204    0.8832 O   0  0  0  0  0  0  0  0  0  4  0  0
    0.4167    1.8135    0.0609 H   0  0  0  0  0  0  0  0  0  5  0  0
   -0.8010   -1.6065   -0.5057 H   0  0  0  0  0  0  0  0  0  6  0  0
   -1.1167    0.1011   -1.1061 H   0  0  0  0  0  0  0  0  0  7  0  0
    0.6130   -0.6286    1.3896 H   0  0  0  0  0  0  0  0  0  8  0  0
  2  1  1  0
  3  2  1  0
  3  1  1  0
  4  3  1  0
  5  4  1  0
  6  2  1  0
  7  2  1  0
  3  8  1  1
M  END
