
     RDKit          3D

  8  5  0  0  0  0  0  0  0  0999 V2000
    0.7456   -1.4124   -0.7106 O   0  0  0  0  0  0  0  0  0  1  0  0
    0.0465   -0.7681    0.0348 C   0  0  0  0  0  0  0  0  0  2  0  0
    0.5213   -0.4165    1.4401 C   0  0  0  0  0  3  0  0  0  3  0  0
   -0.1492    0.2473    2.1934 O   0  0  0  0  0  1  0  0  0  4  0  0
   -0.8402    2.0912   -2.0664 H   0  0  0  0  0 15  0  0  0  5  0  0
   -0.9592   -0.4009   -0.2408 H   0  0  0  0  0  0  0  0  0  6  0  0
   -0.9119    1.5972   -2.6044 H   0  0  0  0  0 15  0  0  0  7  0  0
    1.5223   -0.8140    1.7026 H   0  0  0  0  0  0  0  0  0  8  0  0
  2  1  2  0
  3  2  1  0
  4  3  1  0
  6  2  1  0
  8  3  1  0
M  CHG  4   3  -1   4  -1   5   1   7   1
M  END
