
     RDKit          3D

  8  5  0  0  0  0  0  0  0  0999 V2000
   -1.4104    0.3095    0.9580 O   0  0  0  0  0  0  0  0  0  1  0  0
   -0.2626    0.4012    0.5927 C   0  0  0  0  0  0  0  0  0  2  0  0
    0.1806    1.5485   -0.3079 C   0  0  0  0  0  3  0  0  0  3  0  0
    1.3164    1.6458   -0.7057 O   0  0  0  0  0  1  0  0  0  4  0  0
    0.0222   -3.1974   -0.0871 H   0  0  0  0  0 15  0  0  0  5  0  0
   -0.6201    2.2709   -0.5644 H   0  0  0  0  0  0  0  0  0  6  0  0
    0.5260   -0.3185    0.8796 H   0  0  0  0  0  0  0  0  0  7  0  0
    0.2574   -2.9585   -0.7399 H   0  0  0  0  0 15  0  0  0  8  0  0
  2  1  2  0
  3  2  1  0
  4  3  1  0
  6  3  1  0
  7  2  1  0
M  CHG  4   3  -1   4  -1   5   1   8   1
M  END
