
     RDKit          3D

  8  6  0  0  0  0  0  0  0  0999 V2000
    0.9025    0.3816   -1.4409 O   0  0  0  0  0  0  0  0  0  1  0  0
   -0.0702   -0.2370   -1.7901 C   0  0  0  0  0  0  0  0  0  2  0  0
    0.0621    0.2120    1.7941 C   0  0  0  0  0  0  0  0  0  3  0  0
   -1.0609   -0.2053    1.9261 O   0  0  0  0  0  0  0  0  0  4  0  0
   -1.0012   -0.2611   -1.1917 H   0  0  0  0  0  0  0  0  0  5  0  0
    0.9314   -0.4618    1.6661 H   0  0  0  0  0  0  0  0  0  6  0  0
   -0.0920   -0.8181   -2.7335 H   0  0  0  0  0  0  0  0  0  7  0  0
    0.2922    1.2958    1.7896 H   0  0  0  0  0  0  0  0  0  8  0  0
  2  1  2  0
  4  3  2  0
  5  2  1  0
  6  3  1  0
  7  2  1  0
  8  3  1  0
M  END
