
     RDKit          3D

  8  7  0  0  0  0  0  0  0  0999 V2000
    1.6011   -0.1278   -0.6101 O   0  0  0  0  0  0  0  0  0  1  0  0
   -0.6795   -0.6876   -0.0305 C   0  0  0  0  0  0  0  0  0  2  0  0
    0.5376    0.1810   -0.1260 C   0  0  0  0  0  0  0  0  0  3  0  0
    0.3125    1.4053    0.4170 O   0  0  0  0  0  0  0  0  0  4  0  0
    1.1415    1.8977    0.3173 H   0  0  0  0  0  0  0  0  0  5  0  0
   -0.4978   -1.6238   -0.5450 H   0  0  0  0  0  0  0  0  0  6  0  0
   -1.5412   -0.1842   -0.4640 H   0  0  0  0  0  0  0  0  0  7  0  0
   -0.9121   -0.8859    1.0147 H   0  0  0  0  0  0  0  0  0  8  0  0
  3  2  1  0
  3  1  2  0
  4  3  1  0
  5  4  1  0
  6  2  1  0
  7  2  1  0
  8  2  1  0
M  END
