
     RDKit          3D

  8  7  0  0  0  0  0  0  0  0999 V2000
    0.0495   -1.5711   -1.2973 O   0  0  0  0  0  0  0  0  0  1  0  0
    0.3193   -0.4886   -0.8345 C   0  0  0  0  0  0  0  0  0  2  0  0
   -0.0312   -0.0638    0.5676 C   0  0  0  0  0  0  0  0  0  3  0  0
   -0.1891    1.3393    0.6996 O   0  0  0  0  0  0  0  0  0  4  0  0
   -1.0244    1.5913    0.2894 H   0  0  0  0  0  0  0  0  0  5  0  0
   -0.8934   -0.6401    0.9122 H   0  0  0  0  0  0  0  0  0  6  0  0
    0.8761    0.2784   -1.4156 H   0  0  0  0  0  0  0  0  0  7  0  0
    0.8190   -0.3346    1.2025 H   0  0  0  0  0  0  0  0  0  8  0  0
  2  1  2  0
  3  2  1  0
  4  3  1  0
  5  4  1  0
  6  3  1  0
  7  2  1  0
  8  3  1  0
M  END
