
     RDKit          3D

  8  6  0  0  0  0  0  0  0  0999 V2000
   -2.2977    0.6228    0.1538 O   0  0  0  0  0  0  0  0  0  1  0  0
   -1.7698   -0.4605    0.1464 C   0  0  0  0  0  0  0  0  0  2  0  0
    1.7445    0.4724   -0.1371 C   0  0  0  0  0  0  0  0  0  3  0  0
    1.5649   -0.7096   -0.2822 O   0  0  0  0  0  0  0  0  0  4  0  0
   -1.7169   -1.0844   -0.7674 H   0  0  0  0  0  0  0  0  0  5  0  0
    0.9758    1.2229   -0.4089 H   0  0  0  0  0  0  0  0  0  6  0  0
   -1.3045   -0.8972    1.0511 H   0  0  0  0  0  0  0  0  0  7  0  0
    2.6891    0.8811    0.2745 H   0  0  0  0  0  0  0  0  0  8  0  0
  2  1  2  0
  4  3  2  0
  5  2  1  0
  6  3  1  0
  7  2  1  0
  8  3  1  0
M  END
