
     RDKit          3D

  8  8  0  0  0  0  0  0  0  0999 V2000
    0.9543   -0.4988   -0.5571 O   0  0  0  0  0  0  0  0  0  1  0  0
   -0.4923   -0.5576   -0.5574 C   0  0  0  0  0  0  0  0  0  2  0  0
    0.2503   -0.0149    0.5690 C   0  0  2  0  0  0  0  0  0  3  0  0
    0.3167    1.3417    0.8283 O   0  0  0  0  0  0  0  0  0  4  0  0
    0.5774    1.7602   -0.0019 H   0  0  0  0  0  0  0  0  0  5  0  0
   -0.9131   -1.5563   -0.5149 H   0  0  0  0  0  0  0  0  0  6  0  0
   -0.9732    0.1272   -1.2481 H   0  0  0  0  0  0  0  0  0  7  0  0
    0.3589   -0.5863    1.4851 H   0  0  0  0  0  0  0  0  0  8  0  0
  2  1  1  0
  3  2  1  0
  3  1  1  0
  4  3  1  0
  5  4  1  0
  6  2  1  0
  7  2  1  0
  3  8  1  1
M  END
