
     RDKit          3D

  8  6  0  0  0  0  0  0  0  0999 V2000
   -1.1102   -0.5085    0.8014 O   0  0  0  0  0  0  0  0  0  1  0  0
   -0.7269   -1.2211    1.6927 C   0  0  0  0  0  0  0  0  0  2  0  0
    0.7048    1.1865   -1.6483 C   0  0  0  0  0  0  0  0  0  3  0  0
    1.8984    1.2050   -1.8138 O   0  0  0  0  0  0  0  0  0  4  0  0
   -1.3992   -1.9284    2.2150 H   0  0  0  0  0  0  0  0  0  5  0  0
    0.0689    2.0609   -1.8913 H   0  0  0  0  0  0  0  0  0  6  0  0
    0.3227   -1.2111    2.0446 H   0  0  0  0  0  0  0  0  0  7  0  0
    0.1702    0.3093   -1.2470 H   0  0  0  0  0  0  0  0  0  8  0  0
  2  1  2  0
  4  3  2  0
  5  2  1  0
  6  3  1  0
  7  2  1  0
  8  3  1  0
M  END
