
     RDKit          3D

  8  7  0  0  0  0  0  0  0  0999 V2000
    1.5879   -0.1507   -0.6023 O   0  0  0  0  0  0  0  0  0  1  0  0
   -0.7146   -0.6700   -0.0737 C   0  0  0  0  0  0  0  0  0  2  0  0
    0.5297    0.1639   -0.1104 C   0  0  0  0  0  0  0  0  0  3  0  0
    0.3354    1.3646    0.4938 O   0  0  0  0  0  0  0  0  0  4  0  0
    1.1796    1.8361    0.4271 H   0  0  0  0  0  0  0  0  0  5  0  0
   -0.5287   -1.6195   -0.5617 H   0  0  0  0  0  0  0  0  0  6  0  0
   -1.5295   -0.1510   -0.5749 H   0  0  0  0  0  0  0  0  0  7  0  0
   -1.0236   -0.8388    0.9563 H   0  0  0  0  0  0  0  0  0  8  0  0
  3  2  1  0
  3  1  2  0
  4  3  1  0
  5  4  1  0
  6  2  1  0
  7  2  1  0
  8  2  1  0
M  END
