
     RDKit          3D

  8  7  0  0  0  0  0  0  0  0999 V2000
   -2.0480    0.0631   -0.5802 O   0  0  0  0  0  0  0  0  0  1  0  0
   -0.9724   -0.4381   -0.3603 C   0  0  0  0  0  0  0  0  0  2  0  0
    0.2039    0.3495    0.1535 C   0  0  0  0  0  0  0  0  0  3  0  0
    1.3596   -0.4717    0.1171 O   0  0  0  0  0  0  0  0  0  4  0  0
   -0.7801   -1.5208   -0.5132 H   0  0  0  0  0  0  0  0  0  5  0  0
    0.2954    1.2531   -0.4585 H   0  0  0  0  0  0  0  0  0  6  0  0
   -0.0499    0.6743    1.1710 H   0  0  0  0  0  0  0  0  0  7  0  0
    2.1061    0.0432    0.4404 H   0  0  0  0  0  0  0  0  0  8  0  0
  2  1  2  0
  3  2  1  0
  4  3  1  0
  5  2  1  0
  6  3  1  0
  7  3  1  0
  8  4  1  0
M  END
