
     RDKit          3D

  8  8  0  0  0  0  0  0  0  0999 V2000
   -1.1981    0.0818    0.0740 O   0  0  0  0  0  0  0  0  0  1  0  0
   -0.0651   -0.3528    0.8636 C   0  0  0  0  0  0  0  0  0  2  0  0
    0.0916    0.5505   -0.2652 C   0  0  1  0  0  0  0  0  0  3  0  0
    0.6220    0.1402   -1.4746 O   0  0  0  0  0  0  0  0  0  4  0  0
    0.1982   -1.3982    0.7402 H   0  0  0  0  0  0  0  0  0  5  0  0
    0.2760    1.6076   -0.1043 H   0  0  0  0  0  0  0  0  0  6  0  0
   -0.0415    0.0217    1.8812 H   0  0  0  0  0  0  0  0  0  7  0  0
    0.1356   -0.6559   -1.7236 H   0  0  0  0  0  0  0  0  0  8  0  0
  2  1  1  0
  3  2  1  0
  3  1  1  0
  4  3  1  0
  5  2  1  0
  3  6  1  1
  7  2  1  0
  8  4  1  0
M  END
