
     RDKit          3D

  8  7  0  0  0  0  0  0  0  0999 V2000
    1.3262   -0.4153   -0.2669 O   0  0  0  0  0  0  0  0  0  1  0  0
   -1.0416   -0.3925    0.1575 C   0  0  0  0  0  0  0  0  0  2  0  0
    0.1362    0.2027   -0.0090 C   0  0  0  0  0  0  0  0  0  3  0  0
    0.3088    1.5392    0.0587 O   0  0  0  0  0  0  0  0  0  4  0  0
    1.2441    1.7237   -0.0921 H   0  0  0  0  0  0  0  0  0  5  0  0
    1.1742   -1.3653   -0.3098 H   0  0  0  0  0  0  0  0  0  6  0  0
   -1.9251    0.1876    0.3581 H   0  0  0  0  0  0  0  0  0  7  0  0
   -1.1347   -1.4653    0.0959 H   0  0  0  0  0  0  0  0  0  8  0  0
  3  2  2  0
  3  1  1  0
  4  3  1  0
  5  4  1  0
  6  1  1  0
  7  2  1  0
  8  2  1  0
M  END
