
     RDKit          3D

  8  6  0  0  0  0  0  0  0  0999 V2000
    0.4191   -1.7334   -1.1833 O   0  0  0  0  0  0  0  0  0  1  0  0
   -0.4886   -0.9443   -1.2492 C   0  0  0  0  0  0  0  0  0  2  0  0
    0.4901    0.9268    1.2501 C   0  0  0  0  0  0  0  0  0  3  0  0
   -0.5761    0.9651    1.8093 O   0  0  0  0  0  0  0  0  0  4  0  0
    0.8121    1.7177    0.5429 H   0  0  0  0  0  0  0  0  0  5  0  0
   -1.4063   -1.0428   -0.6368 H   0  0  0  0  0  0  0  0  0  6  0  0
   -0.4584   -0.0686   -1.9283 H   0  0  0  0  0  0  0  0  0  7  0  0
    1.2127    0.1019    1.4057 H   0  0  0  0  0  0  0  0  0  8  0  0
  2  1  2  0
  4  3  2  0
  5  3  1  0
  6  2  1  0
  7  2  1  0
  8  3  1  0
M  END
