
     RDKit          3D

  8  7  0  0  0  0  0  0  0  0999 V2000
    0.1081   -1.5399   -1.3491 O   0  0  0  0  0  0  0  0  0  1  0  0
    0.3759   -0.4801   -0.8354 C   0  0  0  0  0  0  0  0  0  2  0  0
   -0.0714   -0.0799    0.5463 C   0  0  0  0  0  0  0  0  0  3  0  0
   -0.1930    1.3240    0.7055 O   0  0  0  0  0  0  0  0  0  4  0  0
   -0.9841    1.6155    0.2380 H   0  0  0  0  0  0  0  0  0  5  0  0
   -0.9769   -0.6343    0.8049 H   0  0  0  0  0  0  0  0  0  6  0  0
    1.0020    0.2819   -1.3486 H   0  0  0  0  0  0  0  0  0  7  0  0
    0.7159   -0.3971    1.2384 H   0  0  0  0  0  0  0  0  0  8  0  0
  2  1  2  0
  3  2  1  0
  4  3  1  0
  5  4  1  0
  6  3  1  0
  7  2  1  0
  8  3  1  0
M  END
