
     RDKit          3D

  8  7  0  0  0  0  0  0  0  0999 V2000
    0.9800    0.7380   -0.8846 O   0  0  0  0  0  0  0  0  0  1  0  0
   -0.1495   -0.0453   -0.5356 C   0  0  0  0  0  0  0  0  0  2  0  0
   -0.1611   -0.4502    0.9153 C   0  0  0  0  0  0  0  0  0  3  0  0
   -1.1672   -0.6842    1.5410 O   0  0  0  0  0  0  0  0  0  4  0  0
   -1.1055    0.4214   -0.7855 H   0  0  0  0  0  0  0  0  0  5  0  0
    0.8496   -0.5402    1.3695 H   0  0  0  0  0  0  0  0  0  6  0  0
   -0.0720   -0.9675   -1.1212 H   0  0  0  0  0  0  0  0  0  7  0  0
    0.8619    1.6219   -0.5187 H   0  0  0  0  0  0  0  0  0  8  0  0
  2  1  1  0
  3  2  1  0
  4  3  2  0
  5  2  1  0
  6  3  1  0
  7  2  1  0
  8  1  1  0
M  END
