
     RDKit          3D

  8  7  0  0  0  0  0  0  0  0999 V2000
    0.7582   -1.5354   -1.0990 O   0  0  0  0  0  1  0  0  0  1  0  0
    0.0962   -0.5523   -0.6620 C   0  0  0  0  0  0  0  0  0  2  0  0
    0.2657    0.0956    0.6212 C   0  0  0  0  0  0  0  0  0  3  0  0
   -0.1097    1.3279    0.9242 O   0  0  0  0  0  3  0  0  0  4  0  0
   -0.3810    1.8259    0.1338 H   0  0  0  0  0  0  0  0  0  5  0  0
   -0.9338   -0.8195   -0.0990 H   0  0  0  0  0  0  0  0  0  6  0  0
   -0.2283    0.2483   -1.3988 H   0  0  0  0  0  0  0  0  0  7  0  0
    0.5597   -0.5211    1.4556 H   0  0  0  0  0  0  0  0  0  8  0  0
  2  1  1  0
  3  2  1  0
  4  3  2  0
  5  4  1  0
  6  2  1  0
  7  2  1  0
  8  3  1  0
M  CHG  2   1  -1   4   1
M  END
