
     RDKit          3D

  8  7  0  0  0  0  0  0  0  0999 V2000
   -1.6184    1.0460    0.1765 O   0  0  0  0  0  0  0  0  0  1  0  0
   -0.8161    0.0111   -0.2281 C   0  0  0  0  0  0  0  0  0  2  0  0
    0.4746   -0.1402    0.0526 C   0  0  0  0  0  0  0  0  0  3  0  0
    1.1836   -1.2306   -0.4131 O   0  0  0  0  0  0  0  0  0  4  0  0
   -1.3522   -0.7085   -0.8271 H   0  0  0  0  0  0  0  0  0  5  0  0
   -1.1025    1.6638    0.7080 H   0  0  0  0  0  0  0  0  0  6  0  0
    1.0152    0.5855    0.6562 H   0  0  0  0  0  0  0  0  0  7  0  0
    2.0922   -1.1510   -0.1083 H   0  0  0  0  0  0  0  0  0  8  0  0
  2  1  1  0
  3  2  2  0
  4  3  1  0
  5  2  1  0
  6  1  1  0
  7  3  1  0
  8  4  1  0
M  END
