
     RDKit          3D

  8  5  0  0  0  0  0  0  0  0999 V2000
    0.7379   -1.2956   -1.1829 O   0  0  0  0  0  0  0  0  0  1  0  0
    1.0847   -0.2587   -0.6712 C   0  0  0  0  0  0  0  0  0  2  0  0
    0.6360    0.1371    0.7312 C   0  0  0  0  0  3  0  0  0  3  0  0
    0.9964    1.1788    1.2257 O   0  0  0  0  0  1  0  0  0  4  0  0
   -2.6005    0.5231   -0.2360 H   0  0  0  0  0 15  0  0  0  5  0  0
   -2.7683   -0.1381    0.0288 H   0  0  0  0  0 15  0  0  0  6  0  0
    1.7438    0.4767   -1.1739 H   0  0  0  0  0  0  0  0  0  7  0  0
   -0.0235   -0.5850    1.2468 H   0  0  0  0  0  0  0  0  0  8  0  0
  2  1  2  0
  3  2  1  0
  4  3  1  0
  7  2  1  0
  8  3  1  0
M  CHG  4   3  -1   4  -1   5   1   6   1
M  END
