
     RDKit          3D

  8  6  0  0  0  0  0  0  0  0999 V2000
    0.4876    0.1302   -1.6242 O   0  0  0  0  0  0  0  0  0  1  0  0
   -0.7141    0.2074   -1.6955 C   0  0  0  0  0  0  0  0  0  2  0  0
    0.7141   -0.2075    1.6956 C   0  0  0  0  0  0  0  0  0  3  0  0
   -0.4877   -0.1334    1.6237 O   0  0  0  0  0  0  0  0  0  4  0  0
   -1.3581    0.1652   -0.8026 H   0  0  0  0  0  0  0  0  0  5  0  0
    1.3582   -0.1658    0.8026 H   0  0  0  0  0  0  0  0  0  6  0  0
   -1.2339    0.3254   -2.6677 H   0  0  0  0  0  0  0  0  0  7  0  0
    1.2340   -0.3217    2.6682 H   0  0  0  0  0  0  0  0  0  8  0  0
  2  1  2  0
  4  3  2  0
  5  2  1  0
  6  3  1  0
  7  2  1  0
  8  3  1  0
M  END
