
     RDKit          3D

  8  7  0  0  0  0  0  0  0  0999 V2000
   -1.2050   -0.3006    1.6150 O   0  0  0  0  0  0  0  0  0  1  0  0
   -0.8281   -0.3517    0.4687 C   0  0  0  0  0  0  0  0  0  2  0  0
    0.2990    0.4821   -0.0825 C   0  0  0  0  0  0  0  0  0  3  0  0
    0.9571   -0.1296   -1.1797 O   0  0  0  0  0  0  0  0  0  4  0  0
   -1.3103   -1.0160   -0.2811 H   0  0  0  0  0  0  0  0  0  5  0  0
   -0.1489    1.4026   -0.4718 H   0  0  0  0  0  0  0  0  0  6  0  0
    0.9689    0.7640    0.7336 H   0  0  0  0  0  0  0  0  0  7  0  0
    1.5005   -0.8516   -0.8440 H   0  0  0  0  0  0  0  0  0  8  0  0
  2  1  2  0
  3  2  1  0
  4  3  1  0
  5  2  1  0
  6  3  1  0
  7  3  1  0
  8  4  1  0
M  END
