
     RDKit          3D

  8  6  0  0  0  0  0  0  0  0999 V2000
    0.1021    1.1688   -3.1669 O   0  0  0  0  0  0  0  0  0  1  0  0
   -0.1527    0.2524   -2.4310 C   0  0  0  0  0  0  0  0  0  2  0  0
    0.1527   -0.2610    2.4301 C   0  0  0  0  0  0  0  0  0  3  0  0
   -0.0846    0.4909    3.3383 O   0  0  0  0  0  0  0  0  0  4  0  0
    0.3495    0.1019    1.3995 H   0  0  0  0  0  0  0  0  0  5  0  0
   -0.2634    0.3889   -1.3349 H   0  0  0  0  0  0  0  0  0  6  0  0
   -0.2921   -0.7823   -2.8002 H   0  0  0  0  0  0  0  0  0  7  0  0
    0.1883   -1.3597    2.5652 H   0  0  0  0  0  0  0  0  0  8  0  0
  2  1  2  0
  4  3  2  0
  5  3  1  0
  6  2  1  0
  7  2  1  0
  8  3  1  0
M  END
