
     RDKit          3D

  8  5  0  0  0  0  0  0  0  0999 V2000
    0.7480   -1.4871   -0.4398 O   0  0  0  0  0  0  0  0  0  1  0  0
   -0.0436   -0.7400    0.0844 C   0  0  0  0  0  0  0  0  0  2  0  0
    0.1064   -0.3467    1.5494 C   0  0  0  0  0  3  0  0  0  3  0  0
   -0.6578    0.4181    2.0867 O   0  0  0  0  0  1  0  0  0  4  0  0
    0.0177    1.9922   -2.3284 H   0  0  0  0  0 15  0  0  0  5  0  0
   -0.9101   -0.3032   -0.4453 H   0  0  0  0  0  0  0  0  0  6  0  0
   -0.1785    1.4971   -2.8334 H   0  0  0  0  0 15  0  0  0  7  0  0
    0.9676   -0.8140    2.0679 H   0  0  0  0  0  0  0  0  0  8  0  0
  2  1  2  0
  3  2  1  0
  4  3  1  0
  6  2  1  0
  8  3  1  0
M  CHG  4   3  -1   4  -1   5   1   7   1
M  END
