
     RDKit          3D

  8  8  0  0  0  0  0  0  0  0999 V2000
   -0.6681    0.4906   -0.9462 O   0  0  0  0  0  0  0  0  0  1  0  0
   -0.9948    0.0851    0.3977 C   0  0  0  0  0  0  0  0  0  2  0  0
    0.3801    0.1999   -0.0449 C   0  0  1  0  0  0  0  0  0  3  0  0
    1.1013   -0.9632   -0.2634 O   0  0  0  0  0  0  0  0  0  4  0  0
   -1.4341   -0.9021    0.4843 H   0  0  0  0  0  0  0  0  0  5  0  0
   -1.4345    0.8538    1.0245 H   0  0  0  0  0  0  0  0  0  6  0  0
    0.9806    1.0582    0.2549 H   0  0  0  0  0  0  0  0  0  7  0  0
    1.8719   -0.7444   -0.8029 H   0  0  0  0  0  0  0  0  0  8  0  0
  2  1  1  0
  3  2  1  0
  3  1  1  0
  4  3  1  0
  5  2  1  0
  6  2  1  0
  3  7  1  1
  8  4  1  0
M  END
