
     RDKit          3D

  8  7  0  0  0  0  0  0  0  0999 V2000
   -1.2663   -0.3387    1.5751 O   0  0  0  0  0  0  0  0  0  1  0  0
   -0.8701   -0.3392    0.4341 C   0  0  0  0  0  0  0  0  0  2  0  0
    0.3141    0.4599   -0.0439 C   0  0  0  0  0  0  0  0  0  3  0  0
    0.9581   -0.1195   -1.1667 O   0  0  0  0  0  0  0  0  0  4  0  0
   -1.3748   -0.9250   -0.3647 H   0  0  0  0  0  0  0  0  0  5  0  0
   -0.0720    1.4276   -0.3813 H   0  0  0  0  0  0  0  0  0  6  0  0
    0.9824    0.6504    0.7994 H   0  0  0  0  0  0  0  0  0  7  0  0
    1.4522   -0.8917   -0.8686 H   0  0  0  0  0  0  0  0  0  8  0  0
  2  1  2  0
  3  2  1  0
  4  3  1  0
  5  2  1  0
  6  3  1  0
  7  3  1  0
  8  4  1  0
M  END
