
     RDKit          3D

  8  6  0  0  0  0  0  0  0  0999 V2000
    0.4807   -0.9041   -1.3656 O   0  0  0  0  0  0  0  0  0  1  0  0
    0.4979    0.2331   -1.7672 C   0  0  0  0  0  0  0  0  0  2  0  0
   -0.4920   -0.2556    1.7672 C   0  0  0  0  0  0  0  0  0  3  0  0
   -0.4823    0.8811    1.3636 O   0  0  0  0  0  0  0  0  0  4  0  0
    0.2235    1.0855   -1.1253 H   0  0  0  0  0  0  0  0  0  5  0  0
   -0.7763   -0.5014    2.8102 H   0  0  0  0  0  0  0  0  0  6  0  0
    0.7918    0.4795   -2.8073 H   0  0  0  0  0  0  0  0  0  7  0  0
   -0.2200   -1.1080    1.1244 H   0  0  0  0  0  0  0  0  0  8  0  0
  2  1  2  0
  4  3  2  0
  5  2  1  0
  6  3  1  0
  7  2  1  0
  8  3  1  0
M  END
