
     RDKit          3D

  8  6  0  0  0  0  0  0  0  0999 V2000
   -2.2754    1.5741   -0.4411 O   0  0  0  0  0  0  0  0  0  1  0  0
   -1.8426    0.5702    0.0729 C   0  0  0  0  0  0  0  0  0  2  0  0
    1.0302   -0.4067    0.0466 C   0  0  0  0  0  3  0  0  0  3  0  0
    1.9493   -1.3314   -0.0414 O   0  0  0  0  0  3  0  0  0  4  0  0
   -1.6249   -0.3458   -0.5040 H   0  0  0  0  0  0  0  0  0  5  0  0
   -1.6779    0.4986    1.1665 H   0  0  0  0  0  0  0  0  0  6  0  0
    1.5028    0.5874   -0.1315 H   0  0  0  0  0  0  0  0  0  7  0  0
    2.8891   -1.0720   -0.2386 H   0  0  0  0  0  0  0  0  0  8  0  0
  2  1  2  0
  4  3  2  0
  5  2  1  0
  6  2  1  0
  7  3  1  0
  8  4  1  0
M  CHG  2   3  -1   4   1
M  END
