
     RDKit          3D

  8  6  0  0  0  0  0  0  0  0999 V2000
    0.4354   -1.4010   -1.5545 O   0  0  0  0  0  0  0  0  0  1  0  0
    0.1379   -0.2352   -1.6117 C   0  0  0  0  0  0  0  0  0  2  0  0
   -0.0921    0.2261    1.6192 C   0  0  0  0  0  0  0  0  0  3  0  0
    0.5877    1.2198    1.6564 O   0  0  0  0  0  0  0  0  0  4  0  0
   -0.9114    0.0982   -1.7420 H   0  0  0  0  0  0  0  0  0  5  0  0
   -1.1972    0.2719    1.5430 H   0  0  0  0  0  0  0  0  0  6  0  0
    0.8907    0.5739   -1.5365 H   0  0  0  0  0  0  0  0  0  7  0  0
    0.3424   -0.7921    1.6577 H   0  0  0  0  0  0  0  0  0  8  0  0
  2  1  2  0
  4  3  2  0
  5  2  1  0
  6  3  1  0
  7  2  1  0
  8  3  1  0
M  END
