
     RDKit          3D

  8  5  0  0  0  0  0  0  0  0999 V2000
   -1.2384    0.5490    1.3827 O   0  0  0  0  0  0  0  0  0  1  0  0
   -0.0890    0.3678    1.0611 C   0  0  0  0  0  0  0  0  0  2  0  0
    0.4828    0.9480   -0.2293 C   0  0  0  0  0  3  0  0  0  3  0  0
    1.6569    0.8611   -0.4968 O   0  0  0  0  0  1  0  0  0  4  0  0
   -0.4335   -2.3510   -1.0478 H   0  0  0  0  0 15  0  0  0  5  0  0
   -0.2524    1.4571   -0.8827 H   0  0  0  0  0  0  0  0  0  6  0  0
    0.6277   -0.2135    1.6739 H   0  0  0  0  0  0  0  0  0  7  0  0
   -0.7768   -1.9430   -1.5479 H   0  0  0  0  0 15  0  0  0  8  0  0
  2  1  2  0
  3  2  1  0
  4  3  1  0
  6  3  1  0
  7  2  1  0
M  CHG  4   3  -1   4  -1   5   1   8   1
M  END
