
     RDKit          3D

  8  7  0  0  0  0  0  0  0  0999 V2000
   -1.6582    0.0710    1.1691 O   0  0  0  0  0  1  0  0  0  1  0  0
   -0.5841   -0.2512    0.5877 C   0  0  0  0  0  0  0  0  0  2  0  0
    0.1422    0.5446   -0.3789 C   0  0  0  0  0  0  0  0  0  3  0  0
    1.0028    0.0852   -1.2730 O   0  0  0  0  0  3  0  0  0  4  0  0
   -0.4310   -1.3400    0.3046 H   0  0  0  0  0  0  0  0  0  5  0  0
    0.1237    1.6160   -0.2566 H   0  0  0  0  0  0  0  0  0  6  0  0
    0.4325    0.0087    1.1778 H   0  0  0  0  0  0  0  0  0  7  0  0
    0.9861   -0.8861   -1.3224 H   0  0  0  0  0  0  0  0  0  8  0  0
  2  1  1  0
  3  2  1  0
  4  3  2  0
  5  2  1  0
  6  3  1  0
  7  2  1  0
  8  4  1  0
M  CHG  2   1  -1   4   1
M  END
