
     RDKit          3D

  8  6  0  0  0  0  0  0  0  0999 V2000
    0.0814    0.1300   -1.8174 C   0  0  0  0  0  0  0  0  0  1  0  0
    0.8370   -0.6567   -1.3024 O   0  0  0  0  0  0  0  0  0  2  0  0
   -0.0858   -0.1462    1.8720 C   0  0  0  0  0  0  0  0  0  3  0  0
   -0.8434    0.6379    1.3560 O   0  0  0  0  0  0  0  0  0  4  0  0
   -0.6293    0.7313   -1.2283 H   0  0  0  0  0  0  0  0  0  5  0  0
    0.0636    0.2886   -2.9146 H   0  0  0  0  0  0  0  0  0  6  0  0
    0.6204   -0.7530    1.2828 H   0  0  0  0  0  0  0  0  0  7  0  0
   -0.0612   -0.2963    2.9702 H   0  0  0  0  0  0  0  0  0  8  0  0
  2  1  2  0
  4  3  2  0
  5  1  1  0
  6  1  1  0
  7  3  1  0
  8  3  1  0
M  END
