
     RDKit          3D

  8  6  0  0  0  0  0  0  0  0999 V2000
    0.6833   -0.2903   -1.6963 C   0  0  0  0  0  0  0  0  0  1  0  0
    0.5003    0.8586   -1.3776 O   0  0  0  0  0  0  0  0  0  2  0  0
   -0.6913    0.2827    1.6939 C   0  0  0  0  0  0  0  0  0  3  0  0
   -0.4949   -0.8655    1.3803 O   0  0  0  0  0  0  0  0  0  4  0  0
    1.0936   -0.5613   -2.6900 H   0  0  0  0  0  0  0  0  0  5  0  0
   -1.1213    0.5525    2.6796 H   0  0  0  0  0  0  0  0  0  6  0  0
    0.4536   -1.1295   -1.0205 H   0  0  0  0  0  0  0  0  0  7  0  0
   -0.4555    1.1224    1.0208 H   0  0  0  0  0  0  0  0  0  8  0  0
  2  1  2  0
  4  3  2  0
  5  1  1  0
  6  3  1  0
  7  1  1  0
  8  3  1  0
M  END
