
     RDKit          3D

  8  6  0  0  0  0  0  0  0  0999 V2000
    0.0106    0.0885   -1.6118 C   0  0  0  0  0  0  0  0  0  1  0  0
    0.6305   -0.9377   -1.7258 O   0  0  0  0  0  0  0  0  0  2  0  0
   -0.0104   -0.0884    1.6118 C   0  0  0  0  0  0  0  0  0  3  0  0
   -0.5914    0.9601    1.7273 O   0  0  0  0  0  0  0  0  0  4  0  0
    0.5085    1.0746   -1.5199 H   0  0  0  0  0  0  0  0  0  5  0  0
    1.0957   -0.1528    1.5796 H   0  0  0  0  0  0  0  0  0  6  0  0
   -1.0973    0.1114   -1.5853 H   0  0  0  0  0  0  0  0  0  7  0  0
   -0.5453   -1.0553    1.5241 H   0  0  0  0  0  0  0  0  0  8  0  0
  2  1  2  0
  4  3  2  0
  5  1  1  0
  6  3  1  0
  7  1  1  0
  8  3  1  0
M  END
