
     RDKit          3D

  8  6  0  0  0  0  0  0  0  0999 V2000
   -0.1014   -0.0925   -1.8172 C   0  0  0  0  0  0  0  0  0  1  0  0
    0.5648   -0.9385   -1.2737 O   0  0  0  0  0  0  0  0  0  2  0  0
    0.1026    0.0887    1.8743 C   0  0  0  0  0  0  0  0  0  3  0  0
   -0.5196    0.9641    1.3251 O   0  0  0  0  0  0  0  0  0  4  0  0
   -0.5862    0.7217   -1.2556 H   0  0  0  0  0  0  0  0  0  5  0  0
   -0.2607   -0.0915   -2.9145 H   0  0  0  0  0  0  0  0  0  6  0  0
    0.1768    0.0310    2.9791 H   0  0  0  0  0  0  0  0  0  7  0  0
    0.6286   -0.6983    1.3107 H   0  0  0  0  0  0  0  0  0  8  0  0
  2  1  2  0
  4  3  2  0
  5  1  1  0
  6  1  1  0
  7  3  1  0
  8  3  1  0
M  END
