
     RDKit          3D

  8  6  0  0  0  0  0  0  0  0999 V2000
    0.3171   -0.2784   -1.7734 C   0  0  0  0  0  0  0  0  0  1  0  0
    0.5765    0.8208   -1.3497 O   0  0  0  0  0  0  0  0  0  2  0  0
   -0.3150    0.2914    1.8288 C   0  0  0  0  0  0  0  0  0  3  0  0
   -0.5266   -0.8219    1.4155 O   0  0  0  0  0  0  0  0  0  4  0  0
   -0.0035   -1.1002   -1.1133 H   0  0  0  0  0  0  0  0  0  5  0  0
    0.3877   -0.5183   -2.8535 H   0  0  0  0  0  0  0  0  0  6  0  0
   -0.5023    0.5659    2.8865 H   0  0  0  0  0  0  0  0  0  7  0  0
    0.0739    1.0928    1.1808 H   0  0  0  0  0  0  0  0  0  8  0  0
  2  1  2  0
  4  3  2  0
  5  1  1  0
  6  1  1  0
  7  3  1  0
  8  3  1  0
M  END
