
     RDKit          3D

  8  6  0  0  0  0  0  0  0  0999 V2000
   -0.6366   -0.2105   -1.0409 C   0  0  0  0  0  0  0  0  0  1  0  0
    0.7172   -0.5683   -0.8101 O   0  0  0  0  0  0  0  0  0  2  0  0
    0.5612    0.4443    2.9125 C   0  0  0  0  0  3  0  0  0  3  0  0
    1.3234    0.7877    2.1465 O   0  0  0  0  0  3  0  0  0  4  0  0
   -0.7472    0.8431   -1.3160 H   0  0  0  0  0  0  0  0  0  5  0  0
   -0.9898   -0.8165   -1.8723 H   0  0  0  0  0  0  0  0  0  6  0  0
   -1.2763   -0.4192   -0.1772 H   0  0  0  0  0  0  0  0  0  7  0  0
    1.0431   -0.0454   -0.0706 H   0  0  0  0  0  0  0  0  0  8  0  0
  2  1  1  0
  4  3  3  0
  5  1  1  0
  6  1  1  0
  7  1  1  0
  8  2  1  0
M  CHG  2   3  -1   4   1
M  END
