
     RDKit          3D

  8  6  0  0  0  0  0  0  0  0999 V2000
    0.7628    0.3962   -1.4295 C   0  0  0  0  0  0  0  0  0  1  0  0
   -0.0641    0.8595   -2.1715 O   0  0  0  0  0  0  0  0  0  2  0  0
   -0.7571   -0.3894    1.4353 C   0  0  0  0  0  0  0  0  0  3  0  0
    0.2842   -0.7225    1.9412 O   0  0  0  0  0  0  0  0  0  4  0  0
    0.9845   -0.6890   -1.3960 H   0  0  0  0  0  0  0  0  0  5  0  0
   -1.1320    0.6523    1.4827 H   0  0  0  0  0  0  0  0  0  6  0  0
   -1.4019   -1.1027    0.8844 H   0  0  0  0  0  0  0  0  0  7  0  0
    1.3556    1.0260   -0.7367 H   0  0  0  0  0  0  0  0  0  8  0  0
  2  1  2  0
  4  3  2  0
  5  1  1  0
  6  3  1  0
  7  3  1  0
  8  1  1  0
M  END
