
     RDKit          3D

  8  6  0  0  0  0  0  0  0  0999 V2000
   -0.5353    0.9162   -2.4756 C   0  0  0  0  0  3  0  0  0  1  0  0
   -0.3060   -0.1930   -2.5254 O   0  0  0  0  0  3  0  0  0  2  0  0
   -0.0289    0.0035    1.1539 C   0  0  0  0  0  0  0  0  0  3  0  0
    1.0918   -0.3073    0.3386 O   0  0  0  0  0  0  0  0  0  4  0  0
    0.7738   -0.7723   -0.4420 H   0  0  0  0  0  0  0  0  0  5  0  0
   -0.8131    0.5354    0.6070 H   0  0  0  0  0  0  0  0  0  6  0  0
    0.3227    0.6576    1.9488 H   0  0  0  0  0  0  0  0  0  7  0  0
   -0.4647   -0.8892    1.6135 H   0  0  0  0  0  0  0  0  0  8  0  0
  2  1  3  0
  4  3  1  0
  5  4  1  0
  6  3  1  0
  7  3  1  0
  8  3  1  0
M  CHG  2   1  -1   2   1
M  END
