
     RDKit          3D

  8  6  0  0  0  0  0  0  0  0999 V2000
   -0.0410   -0.0135   -1.0907 C   0  0  0  0  0  0  0  0  0  1  0  0
    1.2114   -0.0522   -0.4224 O   0  0  0  0  0  0  0  0  0  2  0  0
   -0.1097   -0.2934    2.6423 C   0  0  0  0  0  3  0  0  0  3  0  0
   -1.2152   -0.2502    2.3974 O   0  0  0  0  0  3  0  0  0  4  0  0
   -0.1551    0.8735   -1.7222 H   0  0  0  0  0  0  0  0  0  5  0  0
   -0.0919   -0.8947   -1.7267 H   0  0  0  0  0  0  0  0  0  6  0  0
   -0.8804   -0.0582   -0.3921 H   0  0  0  0  0  0  0  0  0  7  0  0
    1.2994    0.7533    0.0960 H   0  0  0  0  0  0  0  0  0  8  0  0
  2  1  1  0
  4  3  3  0
  5  1  1  0
  6  1  1  0
  7  1  1  0
  8  2  1  0
M  CHG  2   3  -1   4   1
M  END
