
     RDKit          3D

  8  6  0  0  0  0  0  0  0  0999 V2000
    0.6827    0.2554   -1.6991 C   0  0  0  0  0  0  0  0  0  1  0  0
   -0.2838   -0.4612   -1.6133 O   0  0  0  0  0  0  0  0  0  2  0  0
   -0.6900   -0.2641    1.7003 C   0  0  0  0  0  0  0  0  0  3  0  0
    0.2764    0.4526    1.6147 O   0  0  0  0  0  0  0  0  0  4  0  0
    1.1676    0.4657   -2.6737 H   0  0  0  0  0  0  0  0  0  5  0  0
    1.1346    0.7378   -0.8178 H   0  0  0  0  0  0  0  0  0  6  0  0
   -1.1759   -0.4736    2.6745 H   0  0  0  0  0  0  0  0  0  7  0  0
   -1.1409   -0.7475    0.8189 H   0  0  0  0  0  0  0  0  0  8  0  0
  2  1  2  0
  4  3  2  0
  5  1  1  0
  6  1  1  0
  7  3  1  0
  8  3  1  0
M  END
