
     RDKit          3D

  8  6  0  0  0  0  0  0  0  0999 V2000
   -0.0725    0.1158   -1.8745 C   0  0  0  0  0  0  0  0  0  1  0  0
   -0.3306   -0.9585   -1.3902 O   0  0  0  0  0  0  0  0  0  2  0  0
    0.0624   -0.1035    1.8198 C   0  0  0  0  0  0  0  0  0  3  0  0
    0.3203    0.9706    1.3352 O   0  0  0  0  0  0  0  0  0  4  0  0
   -0.0852    0.2792   -2.9710 H   0  0  0  0  0  0  0  0  0  5  0  0
    0.1888    0.9894   -1.2564 H   0  0  0  0  0  0  0  0  0  6  0  0
    0.0717   -0.2655    2.9164 H   0  0  0  0  0  0  0  0  0  7  0  0
   -0.1953   -0.9784    1.2020 H   0  0  0  0  0  0  0  0  0  8  0  0
  2  1  2  0
  4  3  2  0
  5  1  1  0
  6  1  1  0
  7  3  1  0
  8  3  1  0
M  END
