
     RDKit          3D

  8  6  0  0  0  0  0  0  0  0999 V2000
   -0.5211   -0.6070   -1.5307 C   0  0  0  0  0  0  0  0  0  1  0  0
   -0.3181    0.2187   -2.3829 O   0  0  0  0  0  0  0  0  0  2  0  0
    0.5288    0.6152    1.5294 C   0  0  0  0  0  0  0  0  0  3  0  0
    0.1319   -0.0981    2.4142 O   0  0  0  0  0  0  0  0  0  4  0  0
    0.2252   -1.3839   -1.2706 H   0  0  0  0  0  0  0  0  0  5  0  0
   -0.0620    1.4723    1.1499 H   0  0  0  0  0  0  0  0  0  6  0  0
   -1.4664   -0.6422   -0.9538 H   0  0  0  0  0  0  0  0  0  7  0  0
    1.5109    0.4599    1.0401 H   0  0  0  0  0  0  0  0  0  8  0  0
  2  1  2  0
  4  3  2  0
  5  1  1  0
  6  3  1  0
  7  1  1  0
  8  3  1  0
M  END
