
     RDKit          3D

 12 12  0  0  0  0  0  0  0  0999 V2000
   -0.0877   -0.4248    1.8925 O   0  0  0  0  0  0  0  0  0  1  0  0
    0.7634    0.0878    0.8910 C   0  0  0  0  0  0  0  0  0  2  0  0
    0.1197    0.1113   -0.4800 C   0  0  2  0  0  0  0  0  0  3  0  0
    0.9336    0.5681   -1.5049 O   0  0  0  0  0  0  0  0  0  4  0  0
   -1.3129    0.2635   -0.6352 C   0  0  0  0  0  0  0  0  0  5  0  0
   -0.6819   -1.0330   -0.7624 O   0  0  0  0  0  0  0  0  0  6  0  0
    1.6981   -0.4889    0.8211 H   0  0  0  0  0  0  0  0  0  7  0  0
    1.7351    0.0286   -1.5220 H   0  0  0  0  0  0  0  0  0  8  0  0
    1.0306    1.1068    1.1721 H   0  0  0  0  0  0  0  0  0  9  0  0
   -1.7007    0.6696   -1.5598 H   0  0  0  0  0  0  0  0  0 10  0  0
   -1.9363    0.3825    0.2429 H   0  0  0  0  0  0  0  0  0 11  0  0
   -0.4607   -1.2446    1.5416 H   0  0  0  0  0  0  0  0  0 12  0  0
  2  1  1  0
  3  2  1  0
  3  4  1  6
  5  3  1  0
  6  5  1  0
  6  3  1  0
  7  2  1  0
  8  4  1  0
  9  2  1  0
 10  5  1  0
 11  5  1  0
 12  1  1  0
M  END
