
     RDKit          3D

 12 10  0  0  0  0  0  0  0  0999 V2000
    1.2059   -1.1442    0.5955 O   0  0  0  0  0  0  0  0  0  1  0  0
    1.2749    0.0291    0.2955 C   0  0  0  0  0  0  0  0  0  2  0  0
    0.3605    0.7315   -0.6318 C   0  0  0  0  0  0  0  0  0  3  0  0
    0.5134    2.0839   -0.7584 O   0  0  0  0  0  0  0  0  0  4  0  0
   -0.5711    0.0642   -1.3165 C   0  0  0  0  0  0  0  0  0  5  0  0
   -1.6890   -1.7825    1.6597 O   0  0  0  0  0  0  0  0  0  6  0  0
   -0.7394   -1.7638    1.4869 H   0  0  0  0  0  0  0  0  0  7  0  0
    1.2439    2.3889   -0.2064 H   0  0  0  0  0  0  0  0  0  8  0  0
    2.0709    0.6696    0.7375 H   0  0  0  0  0  0  0  0  0  9  0  0
   -0.6445   -1.0053   -1.2045 H   0  0  0  0  0  0  0  0  0 10  0  0
   -1.2549    0.5577   -1.9882 H   0  0  0  0  0  0  0  0  0 11  0  0
   -1.9751   -0.8938    1.4248 H   0  0  0  0  0  0  0  0  0 12  0  0
  2  1  2  0
  3  2  1  0
  4  3  1  0
  5  3  2  0
  7  6  1  0
  8  4  1  0
  9  2  1  0
 10  5  1  0
 11  5  1  0
 12  6  1  0
M  END
