
     RDKit          3D

 12 10  0  0  0  0  0  0  0  0999 V2000
    0.1124   -2.3966   -0.5474 O   0  0  0  0  0  0  0  0  0  1  0  0
    0.2774   -1.2459   -0.1986 C   0  0  0  0  0  0  0  0  0  2  0  0
   -0.1610   -0.0535   -0.9669 C   0  0  0  0  0  0  0  0  0  3  0  0
    0.0356    1.1723   -0.4103 O   0  0  0  0  0  0  0  0  0  4  0  0
   -0.6955   -0.1952   -2.1826 C   0  0  0  0  0  0  0  0  0  5  0  0
    0.4591    0.8846    2.4892 O   0  0  0  0  0  0  0  0  0  6  0  0
   -0.3302    0.9759    3.0335 H   0  0  0  0  0  0  0  0  0  7  0  0
    0.2270    1.0894    0.5433 H   0  0  0  0  0  0  0  0  0  8  0  0
    0.7970   -1.0263    0.7530 H   0  0  0  0  0  0  0  0  0  9  0  0
   -0.8275   -1.1827   -2.5931 H   0  0  0  0  0  0  0  0  0 10  0  0
   -1.0034    0.6563   -2.7690 H   0  0  0  0  0  0  0  0  0 11  0  0
    1.1189    1.4428    2.9146 H   0  0  0  0  0  0  0  0  0 12  0  0
  2  1  2  0
  3  2  1  0
  4  3  1  0
  5  3  2  0
  7  6  1  0
  8  4  1  0
  9  2  1  0
 10  5  1  0
 11  5  1  0
 12  6  1  0
M  END
