
     RDKit          3D

 12 10  0  0  0  0  0  0  0  0999 V2000
    1.1460   -0.3389   -2.2289 O   0  0  0  0  0  1  0  0  0  1  0  0
    0.5823    0.5689   -1.6517 C   0  0  0  0  0  0  0  0  0  2  0  0
    0.5135    0.4536    1.1124 C   0  0  0  0  0  0  0  0  0  3  0  0
    0.9840    0.8534    2.1147 O   0  0  0  0  0  3  0  0  0  4  0  0
   -0.7180   -0.4940    1.0795 C   0  0  0  0  0  0  0  0  0  5  0  0
   -1.2004   -0.7017   -0.2291 O   0  0  0  0  0  0  0  0  0  6  0  0
    0.8739    0.7386   -0.4478 H   0  0  0  0  0  0  0  0  0  7  0  0
    0.7955    0.6895   -0.3543 H   0  0  0  0  0  0  0  0  0  8  0  0
   -0.3126    1.0918   -2.0450 H   0  0  0  0  0  0  0  0  0  9  0  0
   -1.4866    0.0151    1.6583 H   0  0  0  0  0  0  0  0  0 10  0  0
   -0.4065   -1.4026    1.5972 H   0  0  0  0  0  0  0  0  0 11  0  0
   -0.7756   -1.4754   -0.6219 H   0  0  0  0  0  0  0  0  0 12  0  0
  2  1  1  0
  4  3  3  0
  5  3  1  0
  6  5  1  0
  7  2  1  0
  8  2  1  0
  9  2  1  0
 10  5  1  0
 11  5  1  0
 12  6  1  0
M  CHG  2   1  -1   4   1
M  END
