
     RDKit          3D

 12 11  0  0  0  0  0  0  0  0999 V2000
    1.3124   -1.5239    0.0746 O   0  0  0  0  0  0  0  0  0  1  0  0
    1.2006   -0.1597    0.2433 C   0  0  0  0  0  0  0  0  0  2  0  0
    0.0959    0.5187   -0.0739 C   0  0  0  0  0  0  0  0  0  3  0  0
   -0.0083    1.8804    0.0945 O   0  0  0  0  0  0  0  0  0  4  0  0
   -1.1454   -0.0824   -0.6328 C   0  0  0  0  0  0  0  0  0  5  0  0
   -2.2271   -0.1052    0.3051 O   0  0  0  0  0  0  0  0  0  6  0  0
    2.2289   -1.7700    0.2246 H   0  0  0  0  0  0  0  0  0  7  0  0
    2.0677    0.3519    0.6512 H   0  0  0  0  0  0  0  0  0  8  0  0
    0.7918    2.2144    0.5141 H   0  0  0  0  0  0  0  0  0  9  0  0
   -0.9369   -1.0829   -1.0159 H   0  0  0  0  0  0  0  0  0 10  0  0
   -1.4937    0.5375   -1.4580 H   0  0  0  0  0  0  0  0  0 11  0  0
   -1.9491   -0.6590    1.0446 H   0  0  0  0  0  0  0  0  0 12  0  0
  2  1  1  0
  3  2  2  0
  4  3  1  0
  5  3  1  0
  6  5  1  0
  7  1  1  0
  8  2  1  0
  9  4  1  0
 10  5  1  0
 11  5  1  0
 12  6  1  0
M  END
