
     RDKit          3D

 12 11  0  0  0  0  0  0  0  0999 V2000
    0.2066   -0.6921    1.7637 O   0  0  0  0  0  1  0  0  0  1  0  0
    0.9170   -0.1317    0.8162 C   0  0  0  0  0  0  0  0  0  2  0  0
    0.1972    0.3767   -0.3622 C   0  0  0  0  0  0  0  0  0  3  0  0
    0.7309    1.2351   -1.1939 O   0  0  0  0  0  3  0  0  0  4  0  0
   -1.1761   -0.0729   -0.6327 C   0  0  0  0  0  0  0  0  0  5  0  0
   -1.5100   -1.2732   -0.0344 O   0  0  0  0  0  0  0  0  0  6  0  0
    1.6248   -0.8279    0.2530 H   0  0  0  0  0  0  0  0  0  7  0  0
    1.6298    1.4510   -0.8930 H   0  0  0  0  0  0  0  0  0  8  0  0
    1.6373    0.6694    1.1321 H   0  0  0  0  0  0  0  0  0  9  0  0
   -1.3532   -0.0846   -1.7142 H   0  0  0  0  0  0  0  0  0 10  0  0
   -1.7920    0.7679   -0.2433 H   0  0  0  0  0  0  0  0  0 11  0  0
   -0.9955   -1.2720    0.8412 H   0  0  0  0  0  0  0  0  0 12  0  0
  2  1  1  0
  3  2  1  0
  4  3  2  0
  5  3  1  0
  6  5  1  0
  7  2  1  0
  8  4  1  0
  9  2  1  0
 10  5  1  0
 11  5  1  0
 12  6  1  0
M  CHG  2   1  -1   4   1
M  END
