
     RDKit          3D

 12 10  0  0  0  0  0  0  0  0999 V2000
   -0.9301   -2.5193   -1.3091 O   0  0  0  0  0  0  0  0  0  1  0  0
   -1.0051   -1.3231   -1.4402 C   0  0  0  0  0  0  0  0  0  2  0  0
   -0.1548   -0.3301   -0.6378 C   0  0  0  0  0  0  0  0  0  3  0  0
   -0.2906    0.8528   -0.8989 O   0  0  0  0  0  0  0  0  0  4  0  0
    0.7566   -0.8662    0.4116 C   0  0  0  0  0  0  0  0  0  5  0  0
    0.3012    2.3980    1.5969 O   0  0  0  0  0  0  0  0  0  6  0  0
    0.0864    3.3318    1.6857 H   0  0  0  0  0  0  0  0  0  7  0  0
    0.0596    2.1694    0.6874 H   0  0  0  0  0  0  0  0  0  8  0  0
   -1.6971   -0.8432   -2.1583 H   0  0  0  0  0  0  0  0  0  9  0  0
    0.9378   -1.9316    0.3021 H   0  0  0  0  0  0  0  0  0 10  0  0
    1.6906   -0.3090    0.4133 H   0  0  0  0  0  0  0  0  0 11  0  0
    0.2886   -0.6967    1.3839 H   0  0  0  0  0  0  0  0  0 12  0  0
  2  1  2  0
  3  2  1  0
  4  3  2  0
  5  3  1  0
  7  6  1  0
  8  6  1  0
  9  2  1  0
 10  5  1  0
 11  5  1  0
 12  5  1  0
M  END
