
     RDKit          3D

 12 10  0  0  0  0  0  0  0  0999 V2000
    1.1452   -0.0655    2.0539 O   0  0  0  0  0  0  0  0  0  1  0  0
    2.0312   -0.8835    2.0237 C   0  0  0  0  0  0  0  0  0  2  0  0
   -0.6249    1.2133   -1.5728 C   0  0  0  0  0  0  0  0  0  3  0  0
   -1.0804    2.1610   -2.1674 O   0  0  0  0  0  0  0  0  0  4  0  0
   -1.4605    0.0886   -1.0157 C   0  0  0  0  0  0  0  0  0  5  0  0
   -0.7079   -0.8592   -0.2841 O   0  0  0  0  0  0  0  0  0  6  0  0
    2.0041   -1.7440    1.3287 H   0  0  0  0  0  0  0  0  0  7  0  0
    0.4677    1.0974   -1.4003 H   0  0  0  0  0  0  0  0  0  8  0  0
    2.9130   -0.8155    2.6879 H   0  0  0  0  0  0  0  0  0  9  0  0
   -1.9090   -0.4406   -1.8588 H   0  0  0  0  0  0  0  0  0 10  0  0
   -2.2870    0.5236   -0.4419 H   0  0  0  0  0  0  0  0  0 11  0  0
   -0.4044   -0.4511    0.5390 H   0  0  0  0  0  0  0  0  0 12  0  0
  2  1  2  0
  4  3  2  0
  5  3  1  0
  6  5  1  0
  7  2  1  0
  8  3  1  0
  9  2  1  0
 10  5  1  0
 11  5  1  0
 12  6  1  0
M  END
