
     RDKit          3D

 12 12  0  0  0  0  0  0  0  0999 V2000
   -0.0429   -0.8250    1.4951 O   0  0  0  0  0  0  0  0  0  1  0  0
    0.9505   -0.2777    0.6956 C   0  0  0  0  0  0  0  0  0  2  0  0
    0.2926    0.2287   -0.5622 C   0  0  0  0  0  3  0  0  0  3  0  0
    0.7169    1.3200   -1.1956 O   0  0  0  0  0  0  0  0  0  4  0  0
   -1.1944   -0.0911   -0.5068 C   0  0  0  0  0  0  0  0  0  5  0  0
   -1.2819   -1.1273    0.3163 O   0  0  0  0  0  3  0  0  0  6  0  0
    1.7184   -1.0397    0.4905 H   0  0  0  0  0  0  0  0  0  7  0  0
    1.6237    1.5238   -0.9197 H   0  0  0  0  0  0  0  0  0  8  0  0
    1.4234    0.5572    1.2283 H   0  0  0  0  0  0  0  0  0  9  0  0
   -1.5113   -0.3275   -1.5449 H   0  0  0  0  0  0  0  0  0 10  0  0
   -1.7554    0.8287   -0.2358 H   0  0  0  0  0  0  0  0  0 11  0  0
   -0.9289   -0.8438    0.4839 H   0  0  0  0  0  0  0  0  0 12  0  0
  2  1  1  0
  3  2  1  0
  4  3  1  0
  5  3  1  0
  6  5  1  0
  6  1  1  0
  7  2  1  0
  8  4  1  0
  9  2  1  0
 10  5  1  0
 11  5  1  0
 12  6  1  0
M  CHG  2   3  -1   6   1
M  END
