
     RDKit          3D

 12 11  0  0  0  0  0  0  0  0999 V2000
    1.5233   -0.8619   -0.5854 O   0  0  0  0  0  0  0  0  0  1  0  0
    1.3106    0.4020    0.0006 C   0  0  0  0  0  0  0  0  0  2  0  0
   -0.1191    0.9029   -0.0095 C   0  0  0  0  0  0  0  0  0  3  0  0
   -0.3764    2.0792    0.1435 O   0  0  0  0  0  0  0  0  0  4  0  0
   -1.2259   -0.1138   -0.2310 C   0  0  0  0  0  0  0  0  0  5  0  0
   -1.0091   -1.3832    0.3960 O   0  0  0  0  0  0  0  0  0  6  0  0
    0.8830   -1.4735   -0.1867 H   0  0  0  0  0  0  0  0  0  7  0  0
    1.9130    1.1352   -0.5326 H   0  0  0  0  0  0  0  0  0  8  0  0
    1.6401    0.4397    1.0489 H   0  0  0  0  0  0  0  0  0  9  0  0
   -1.2628   -0.3177   -1.3022 H   0  0  0  0  0  0  0  0  0 10  0  0
   -2.1753    0.3338    0.0576 H   0  0  0  0  0  0  0  0  0 11  0  0
   -1.1260   -1.2719    1.3471 H   0  0  0  0  0  0  0  0  0 12  0  0
  2  1  1  0
  3  2  1  0
  4  3  2  0
  5  3  1  0
  6  5  1  0
  7  1  1  0
  8  2  1  0
  9  2  1  0
 10  5  1  0
 11  5  1  0
 12  6  1  0
M  END
