
     RDKit          3D

 12 10  0  0  0  0  0  0  0  0999 V2000
   -0.4593   -2.5283   -1.8652 O   0  0  0  0  0  0  0  0  0  1  0  0
   -0.8197   -1.3855   -1.6803 C   0  0  0  0  0  0  0  0  0  2  0  0
   -0.3087   -0.4888   -0.6119 C   0  0  0  0  0  0  0  0  0  3  0  0
   -0.9000    0.7303   -0.6590 O   0  0  0  0  0  0  0  0  0  4  0  0
    0.6210   -0.8991    0.2572 C   0  0  0  0  0  0  0  0  0  5  0  0
    0.3943    2.1286    1.5564 O   0  0  0  0  0  0  0  0  0  6  0  0
    1.3250    2.3772    1.5333 H   0  0  0  0  0  0  0  0  0  7  0  0
   -0.5319    1.2851    0.0555 H   0  0  0  0  0  0  0  0  0  8  0  0
   -1.5881   -0.9092   -2.3215 H   0  0  0  0  0  0  0  0  0  9  0  0
    1.0108   -1.9039    0.1813 H   0  0  0  0  0  0  0  0  0 10  0  0
    0.9984   -0.2565    1.0383 H   0  0  0  0  0  0  0  0  0 11  0  0
    0.2151    1.9174    2.4792 H   0  0  0  0  0  0  0  0  0 12  0  0
  2  1  2  0
  3  2  1  0
  4  3  1  0
  5  3  2  0
  7  6  1  0
  8  4  1  0
  9  2  1  0
 10  5  1  0
 11  5  1  0
 12  6  1  0
M  END
