
     RDKit          3D

 12 11  0  0  0  0  0  0  0  0999 V2000
    0.3935   -1.4732    1.2506 O   0  0  0  0  0  0  0  0  0  1  0  0
    0.9995   -0.3484    0.6369 C   0  0  0  0  0  0  0  0  0  2  0  0
    0.1180    0.2853   -0.4429 C   0  0  0  0  0  0  0  0  0  3  0  0
    0.7770    1.0461   -1.4125 O   0  0  0  0  0  0  0  0  0  4  0  0
   -1.2879    0.1347   -0.5042 C   0  0  0  0  0  0  0  0  0  5  0  0
   -2.0658   -0.4954    0.2592 O   0  0  0  0  0  0  0  0  0  6  0  0
    1.9286   -0.6790    0.1759 H   0  0  0  0  0  0  0  0  0  7  0  0
    1.2387    1.7640   -0.9673 H   0  0  0  0  0  0  0  0  0  8  0  0
    1.2561    0.4187    1.3750 H   0  0  0  0  0  0  0  0  0  9  0  0
   -0.9218    0.0750   -0.4070 H   0  0  0  0  0  0  0  0  0 10  0  0
   -1.8312    0.6586   -1.3336 H   0  0  0  0  0  0  0  0  0 11  0  0
   -0.5695   -1.3165    1.2727 H   0  0  0  0  0  0  0  0  0 12  0  0
  2  1  1  0
  3  2  1  0
  4  3  1  0
  5  3  1  0
  6  5  2  0
  7  2  1  0
  8  4  1  0
  9  2  1  0
 10  3  1  0
 11  5  1  0
 12  1  1  0
M  END
