
     RDKit          3D

 12 11  0  0  0  0  0  0  0  0999 V2000
    0.1939   -0.7104    1.7590 O   0  0  0  0  0  1  0  0  0  1  0  0
    0.9108   -0.1407    0.8223 C   0  0  0  0  0  0  0  0  0  2  0  0
    0.2006    0.3780   -0.3574 C   0  0  0  0  0  0  0  0  0  3  0  0
    0.7427    1.2410   -1.1789 O   0  0  0  0  0  3  0  0  0  4  0  0
   -1.1718   -0.0657   -0.6427 C   0  0  0  0  0  0  0  0  0  5  0  0
   -1.5179   -1.2652   -0.0504 O   0  0  0  0  0  0  0  0  0  6  0  0
    1.6244   -0.8312    0.2590 H   0  0  0  0  0  0  0  0  0  7  0  0
    1.6400    1.4518   -0.8702 H   0  0  0  0  0  0  0  0  0  8  0  0
    1.6277    0.6583    1.1511 H   0  0  0  0  0  0  0  0  0  9  0  0
   -1.3367   -0.0747   -1.7263 H   0  0  0  0  0  0  0  0  0 10  0  0
   -1.7887    0.7773   -0.2597 H   0  0  0  0  0  0  0  0  0 11  0  0
   -1.0067   -1.2727    0.8274 H   0  0  0  0  0  0  0  0  0 12  0  0
  2  1  1  0
  3  2  1  0
  4  3  2  0
  5  3  1  0
  6  5  1  0
  7  2  1  0
  8  4  1  0
  9  2  1  0
 10  5  1  0
 11  5  1  0
 12  6  1  0
M  CHG  2   1  -1   4   1
M  END
