
     RDKit          3D

 12 11  0  0  0  0  0  0  0  0999 V2000
    0.6882   -1.0285    1.4590 O   0  0  0  0  0  0  0  0  0  1  0  0
    1.0173    0.0395    0.6222 C   0  0  0  0  0  0  0  0  0  2  0  0
    0.1839    0.5088   -0.3070 C   0  0  0  0  0  0  0  0  0  3  0  0
    0.4990    1.5754   -1.1097 O   0  0  0  0  0  0  0  0  0  4  0  0
   -1.1637   -0.0397   -0.6803 C   0  0  0  0  0  0  0  0  0  5  0  0
   -1.8340   -0.7545    0.3361 O   0  0  0  0  0  0  0  0  0  6  0  0
    1.3035   -1.7523    1.2904 H   0  0  0  0  0  0  0  0  0  7  0  0
    1.3550    1.9340   -0.8456 H   0  0  0  0  0  0  0  0  0  8  0  0
    1.9758    0.5094    0.8238 H   0  0  0  0  0  0  0  0  0  9  0  0
   -1.0495   -0.6498   -1.5889 H   0  0  0  0  0  0  0  0  0 10  0  0
   -1.7951    0.8056   -0.9595 H   0  0  0  0  0  0  0  0  0 11  0  0
   -1.1615   -1.1779    0.8930 H   0  0  0  0  0  0  0  0  0 12  0  0
  2  1  1  0
  3  2  2  0
  4  3  1  0
  5  3  1  0
  6  5  1  0
  7  1  1  0
  8  4  1  0
  9  2  1  0
 10  5  1  0
 11  5  1  0
 12  6  1  0
M  END
