
     RDKit          3D

 12 11  0  0  0  0  0  0  0  0999 V2000
   -0.2658   -0.2824   -1.1082 O   0  0  0  0  0  3  0  0  0  1  0  0
   -1.3223   -0.1122   -1.8368 C   0  0  0  0  0  3  0  0  0  2  0  0
   -0.4043    0.1727    0.3215 C   0  0  2  0  0  0  0  0  0  3  0  0
   -0.7927    1.4897    0.3807 O   0  0  0  0  0  0  0  0  0  4  0  0
    0.9626    0.0475    0.9349 C   0  0  0  0  0  0  0  0  0  5  0  0
    1.3767   -1.2944    1.1179 O   0  0  0  0  0  0  0  0  0  6  0  0
   -1.6297    1.5931   -0.0998 H   0  0  0  0  0  0  0  0  0  7  0  0
   -1.1210   -0.5208    0.7719 H   0  0  0  0  0  0  0  0  0  8  0  0
   -1.0042   -0.5387   -2.8208 H   0  0  0  0  0  0  0  0  0  9  0  0
    0.8979    0.4878    1.9287 H   0  0  0  0  0  0  0  0  0 10  0  0
    1.6765    0.6370    0.3511 H   0  0  0  0  0  0  0  0  0 11  0  0
    1.5721   -1.6729    0.2529 H   0  0  0  0  0  0  0  0  0 12  0  0
  2  1  2  0
  3  1  1  0
  4  3  1  0
  5  3  1  0
  6  5  1  0
  7  4  1  0
  3  8  1  1
  9  2  1  0
 10  5  1  0
 11  5  1  0
 12  6  1  0
M  CHG  2   1   1   2  -1
M  END
