
     RDKit          3D

 12 10  0  0  0  0  0  0  0  0999 V2000
    1.2549    0.9545   -0.4613 O   0  0  0  0  0  0  0  0  0  1  0  0
    0.3650    0.3891   -1.3003 C   0  0  0  0  0  0  0  0  0  2  0  0
   -0.9037   -0.1665   -1.1143 C   0  0  0  0  0  3  0  0  0  3  0  0
   -1.6303   -0.4414   -0.0098 O   0  0  0  0  0  0  0  0  0  4  0  0
    0.3170   -0.2983    2.0200 C   0  0  0  0  0  0  0  0  0  5  0  0
    0.4348   -0.6230    3.1336 O   0  0  0  0  0  3  0  0  0  6  0  0
    0.7070    0.4143   -2.3328 H   0  0  0  0  0  0  0  0  0  7  0  0
   -0.5885    0.0067   -0.9498 H   0  0  0  0  0  0  0  0  0  8  0  0
   -1.5224   -0.4845   -1.9592 H   0  0  0  0  0  0  0  0  0  9  0  0
   -1.0642   -0.4013    0.8553 H   0  0  0  0  0  0  0  0  0 10  0  0
    1.1655    0.4780    0.5685 H   0  0  0  0  0  0  0  0  0 11  0  0
    1.3733    0.2055    1.4079 H   0  0  0  0  0  0  0  0  0 12  0  0
  2  1  1  0
  3  2  1  0
  4  3  1  0
  6  5  3  0
  7  2  1  0
  8  2  1  0
  9  3  1  0
 10  4  1  0
 11  1  1  0
 12  5  1  0
M  CHG  2   3  -1   6   1
M  END
