
     RDKit          3D

 12 10  0  0  0  0  0  0  0  0999 V2000
   -1.6215    0.6466    0.4019 O   0  0  0  0  0  0  0  0  0  1  0  0
   -0.8577    1.4426   -0.1425 C   0  0  0  0  0  0  0  0  0  2  0  0
    0.4910    1.1884   -0.5784 C   0  0  0  0  0  0  0  0  0  3  0  0
   -1.1525   -2.0378    1.0911 O   0  0  0  0  0  0  0  0  0  4  0  0
    1.0796   -0.0127   -0.4226 C   0  0  0  0  0  0  0  0  0  5  0  0
    2.3373   -0.2202   -0.8398 O   0  0  0  0  0  0  0  0  0  6  0  0
   -1.2148    2.4716   -0.3317 H   0  0  0  0  0  0  0  0  0  7  0  0
    1.0421    1.9941   -1.0453 H   0  0  0  0  0  0  0  0  0  8  0  0
   -1.4931   -1.1342    0.9292 H   0  0  0  0  0  0  0  0  0  9  0  0
   -1.8812   -2.5025    1.5133 H   0  0  0  0  0  0  0  0  0 10  0  0
    0.5704   -0.8541    0.0404 H   0  0  0  0  0  0  0  0  0 11  0  0
    2.6057   -1.1287   -0.6543 H   0  0  0  0  0  0  0  0  0 12  0  0
  2  1  2  0
  3  2  1  0
  5  3  2  0
  6  5  1  0
  7  2  1  0
  8  3  1  0
  9  4  1  0
 10  4  1  0
 11  5  1  0
 12  6  1  0
M  END
