
     RDKit          3D

 12 10  0  0  0  0  0  0  0  0999 V2000
    1.3293    0.9370   -0.6831 O   0  0  0  0  0  0  0  0  0  1  0  0
    0.2872    0.4132   -1.3617 C   0  0  0  0  0  3  0  0  0  2  0  0
   -0.9115   -0.2066   -1.0395 C   0  0  0  0  0  0  0  0  0  3  0  0
   -1.5086   -0.6122    0.0880 O   0  0  0  0  0  0  0  0  0  4  0  0
    0.8267   -0.0327    1.7963 C   0  0  0  0  0  0  0  0  0  5  0  0
   -0.2200   -0.5114    2.2011 O   0  0  0  0  0  3  0  0  0  6  0  0
    0.4300    0.5467   -2.4275 H   0  0  0  0  0  0  0  0  0  7  0  0
   -0.5794   -0.0793   -0.8537 H   0  0  0  0  0  0  0  0  0  8  0  0
   -1.5979   -0.4437   -1.8572 H   0  0  0  0  0  0  0  0  0  9  0  0
   -1.0137   -0.5789    1.0053 H   0  0  0  0  0  0  0  0  0 10  0  0
    1.2573    0.6125    0.3229 H   0  0  0  0  0  0  0  0  0 11  0  0
    1.6433    0.0454    2.5565 H   0  0  0  0  0  0  0  0  0 12  0  0
  2  1  1  0
  3  2  1  0
  4  3  1  0
  6  5  3  0
  7  2  1  0
  8  3  1  0
  9  3  1  0
 10  4  1  0
 11  1  1  0
 12  5  1  0
M  CHG  2   2  -1   6   1
M  END
