
     RDKit          3D

 12 10  0  0  0  0  0  0  0  0999 V2000
    1.2505    0.7582   -0.8170 O   0  0  0  0  0  1  0  0  0  1  0  0
    0.1940    0.4107   -1.4694 C   0  0  0  0  0  0  0  0  0  2  0  0
   -1.0325   -0.2217   -1.1812 C   0  0  0  0  0  0  0  0  0  3  0  0
   -1.5711   -0.7160   -0.0435 O   0  0  0  0  0  3  0  0  0  4  0  0
    1.0942    0.0662    2.0452 C   0  0  0  0  0  0  0  0  0  5  0  0
   -0.0174   -0.4314    2.0103 O   0  0  0  0  0  0  0  0  0  6  0  0
    0.2396    0.6633   -2.5309 H   0  0  0  0  0  0  0  0  0  7  0  0
   -0.7201   -0.1175   -0.9819 H   0  0  0  0  0  0  0  0  0  8  0  0
   -1.7507   -0.3838   -1.9896 H   0  0  0  0  0  0  0  0  0  9  0  0
   -1.0095   -0.6339    0.7940 H   0  0  0  0  0  0  0  0  0 10  0  0
    1.5538    0.4637    1.1301 H   0  0  0  0  0  0  0  0  0 11  0  0
    1.6429    0.1184    3.0023 H   0  0  0  0  0  0  0  0  0 12  0  0
  2  1  1  0
  3  2  1  0
  4  3  2  0
  6  5  2  0
  7  2  1  0
  8  2  1  0
  9  3  1  0
 10  4  1  0
 11  5  1  0
 12  5  1  0
M  CHG  2   1  -1   4   1
M  END
