
     RDKit          3D

 12 10  0  0  0  0  0  0  0  0999 V2000
    0.9503    1.0145   -0.4253 O   0  0  0  0  0  0  0  0  0  1  0  0
    0.3931    0.4006   -1.3076 C   0  0  0  0  0  0  0  0  0  2  0  0
   -0.9189   -0.3242   -1.1918 C   0  0  0  0  0  0  0  0  0  3  0  0
   -1.6954   -0.0625   -0.0659 O   0  0  0  0  0  0  0  0  0  4  0  0
    0.9402    0.1429    2.0093 C   0  0  0  0  0  0  0  0  0  5  0  0
    0.0745   -0.7082    2.0365 O   0  0  0  0  0  0  0  0  0  6  0  0
    0.8686    0.3275   -2.3122 H   0  0  0  0  0  0  0  0  0  7  0  0
   -0.6529   -1.3921   -1.3008 H   0  0  0  0  0  0  0  0  0  8  0  0
   -1.5034   -0.0815   -2.0858 H   0  0  0  0  0  0  0  0  0  9  0  0
   -1.2052   -0.3580    0.7238 H   0  0  0  0  0  0  0  0  0 10  0  0
    0.7268    1.1960    2.2606 H   0  0  0  0  0  0  0  0  0 11  0  0
    1.9959   -0.0970    1.7925 H   0  0  0  0  0  0  0  0  0 12  0  0
  2  1  2  0
  3  2  1  0
  4  3  1  0
  6  5  2  0
  7  2  1  0
  8  3  1  0
  9  3  1  0
 10  4  1  0
 11  5  1  0
 12  5  1  0
M  END
