
     RDKit          3D

 12 11  0  0  0  0  0  0  0  0999 V2000
    1.3266    1.3349   -1.5698 O   0  0  0  0  0  0  0  0  0  1  0  0
    1.5117    0.7218   -0.5453 C   0  0  0  0  0  0  0  0  0  2  0  0
    0.5310   -0.2819    0.0257 C   0  0  1  0  0  0  0  0  0  3  0  0
    0.7615   -0.3865    1.4196 O   0  0  0  0  0  0  0  0  0  4  0  0
   -0.9083    0.0873   -0.2753 C   0  0  0  0  0  0  0  0  0  5  0  0
   -1.6981   -0.9000    0.3955 O   0  0  0  0  0  0  0  0  0  6  0  0
    2.4418    0.8371    0.0480 H   0  0  0  0  0  0  0  0  0  7  0  0
    0.7467   -1.2427   -0.4703 H   0  0  0  0  0  0  0  0  0  8  0  0
   -1.1142    1.0864    0.1172 H   0  0  0  0  0  0  0  0  0  9  0  0
   -0.0090   -0.8549    1.7708 H   0  0  0  0  0  0  0  0  0 10  0  0
   -1.0801    0.0905   -1.3527 H   0  0  0  0  0  0  0  0  0 11  0  0
   -2.6118   -0.6007    0.4191 H   0  0  0  0  0  0  0  0  0 12  0  0
  2  1  2  0
  3  2  1  0
  4  3  1  0
  5  3  1  0
  6  5  1  0
  7  2  1  0
  3  8  1  6
  9  5  1  0
 10  4  1  0
 11  5  1  0
 12  6  1  0
M  END
