
     RDKit          3D

 12 10  0  0  0  0  0  0  0  0999 V2000
    1.3518    0.8168   -0.7814 O   0  0  0  0  0  0  0  0  0  1  0  0
    0.2602    0.4182   -1.4780 C   0  0  0  0  0  0  0  0  0  2  0  0
   -0.9517   -0.2085   -1.1017 C   0  0  0  0  0  0  0  0  0  3  0  0
   -1.4310   -0.6179    0.0042 O   0  0  0  0  0  0  0  0  0  4  0  0
    0.8561    0.0207    1.8161 C   0  0  0  0  0  3  0  0  0  5  0  0
   -0.1920   -0.5330    2.2984 O   0  0  0  0  0  3  0  0  0  6  0  0
    0.3690    0.6444   -2.5307 H   0  0  0  0  0  0  0  0  0  7  0  0
   -0.5950   -0.0584   -1.0396 H   0  0  0  0  0  0  0  0  0  8  0  0
   -1.6824   -0.4073   -1.9140 H   0  0  0  0  0  0  0  0  0  9  0  0
   -0.8359   -0.6531    1.5052 H   0  0  0  0  0  0  0  0  0 10  0  0
    1.2365    0.5410    0.2230 H   0  0  0  0  0  0  0  0  0 11  0  0
    1.5971    0.1712    2.6245 H   0  0  0  0  0  0  0  0  0 12  0  0
  2  1  1  0
  3  2  1  0
  4  3  2  0
  6  5  2  0
  7  2  1  0
  8  2  1  0
  9  3  1  0
 10  6  1  0
 11  1  1  0
 12  5  1  0
M  CHG  2   5  -1   6   1
M  END
