
     RDKit          3D

 12 10  0  0  0  0  0  0  0  0999 V2000
    1.2965    0.7923   -0.8089 O   0  0  0  0  0  1  0  0  0  1  0  0
    0.2258    0.3978   -1.4449 C   0  0  0  0  0  0  0  0  0  2  0  0
   -0.9936   -0.2244   -1.1193 C   0  0  0  0  0  0  0  0  0  3  0  0
   -1.5222   -0.6658   -0.0059 O   0  0  0  0  0  0  0  0  0  4  0  0
    0.9695    0.0692    1.8573 C   0  0  0  0  0  0  0  0  0  5  0  0
   -0.1418   -0.4670    2.0953 O   0  0  0  0  0  3  0  0  0  6  0  0
    0.2918    0.6077   -2.5130 H   0  0  0  0  0  0  0  0  0  7  0  0
   -0.6645   -0.0976   -0.9730 H   0  0  0  0  0  0  0  0  0  8  0  0
   -1.6924   -0.3983   -1.9664 H   0  0  0  0  0  0  0  0  0  9  0  0
   -0.7575   -0.5578    1.1962 H   0  0  0  0  0  0  0  0  0 10  0  0
    1.2532    0.4186    0.8405 H   0  0  0  0  0  0  0  0  0 11  0  0
    1.6377    0.1709    2.7106 H   0  0  0  0  0  0  0  0  0 12  0  0
  2  1  1  0
  3  2  1  0
  4  3  2  0
  6  5  2  0
  7  2  1  0
  8  2  1  0
  9  3  1  0
 10  6  1  0
 11  5  1  0
 12  5  1  0
M  CHG  2   1  -1   6   1
M  END
