
     RDKit          3D

 12  9  0  0  0  0  0  0  0  0999 V2000
    0.8767    1.2633   -0.4174 O   0  0  0  0  0  0  0  0  0  1  0  0
    0.4502    0.3974   -1.1719 C   0  0  0  0  0  0  0  0  0  2  0  0
   -0.8965   -0.2633   -1.0873 C   0  0  0  0  0  0  0  0  0  3  0  0
   -1.6364   -0.0126    0.0819 O   0  0  0  0  0  0  0  0  0  4  0  0
    0.8368    0.0975    2.2987 C   0  0  0  0  0  3  0  0  0  5  0  0
    0.2021   -0.8554    2.5241 O   0  0  0  0  0  0  0  0  0  6  0  0
    1.0787    0.0544   -2.0160 H   0  0  0  0  0  0  0  0  0  7  0  0
   -0.7457   -1.3344   -1.2943 H   0  0  0  0  0  0  0  0  0  8  0  0
   -1.4838    0.1190   -1.9323 H   0  0  0  0  0  0  0  0  0  9  0  0
   -1.2378   -0.4951    0.8240 H   0  0  0  0  0  0  0  0  0 10  0  0
    0.9964    0.7998    0.9273 H   0  0  0  0  0 15  0  0  0 11  0  0
    1.5855    0.1713    1.1300 H   0  0  0  0  0  0  0  0  0 12  0  0
  2  1  2  0
  3  2  1  0
  4  3  1  0
  6  5  2  0
  7  2  1  0
  8  3  1  0
  9  3  1  0
 10  4  1  0
 12  5  1  0
M  CHG  2   5  -1  11   1
M  END
