
     RDKit          3D

 12 10  0  0  0  0  0  0  0  0999 V2000
    2.0178    0.9326   -1.8487 O   0  0  0  0  0  0  0  0  0  1  0  0
    1.9992    0.8002   -0.6486 C   0  0  0  0  0  0  0  0  0  2  0  0
    1.4622   -0.4658   -0.0074 C   0  0  0  0  0  0  0  0  0  3  0  0
    1.2972   -0.5521    1.1878 O   0  0  0  0  0  0  0  0  0  4  0  0
   -1.8986    0.0603    0.0572 C   0  0  0  0  0  0  0  0  0  5  0  0
   -1.7606   -1.0741    0.8894 O   0  0  0  0  0  0  0  0  0  6  0  0
    2.3487    1.5788    0.0577 H   0  0  0  0  0  0  0  0  0  7  0  0
    1.2239   -1.2816   -0.7160 H   0  0  0  0  0  0  0  0  0  8  0  0
   -1.6633    0.9940    0.5727 H   0  0  0  0  0  0  0  0  0  9  0  0
   -0.9306   -0.9834    1.3731 H   0  0  0  0  0  0  0  0  0 10  0  0
   -1.2742   -0.0066   -0.8373 H   0  0  0  0  0  0  0  0  0 11  0  0
   -2.9330    0.1031   -0.2718 H   0  0  0  0  0  0  0  0  0 12  0  0
  2  1  2  0
  3  2  1  0
  4  3  2  0
  6  5  1  0
  7  2  1  0
  8  3  1  0
  9  5  1  0
 10  6  1  0
 11  5  1  0
 12  5  1  0
M  END
