
     RDKit          3D

 12  8  0  0  0  0  0  0  0  0999 V2000
   -0.6683    1.8174   -2.0299 O   0  0  0  0  0  0  0  0  0  1  0  0
   -0.4638    0.6336   -2.1968 C   0  0  0  0  0  0  0  0  0  2  0  0
   -0.5961   -0.3565   -1.0765 C   0  0  0  0  0  0  0  0  0  3  0  0
   -1.0021    0.2481    0.1175 O   0  0  0  0  0  0  0  0  0  4  0  0
   -0.9454   -1.5631    3.0509 C   0  0  0  0  0  2  0  0  0  5  0  0
    0.1208   -1.2014    3.1868 O   0  0  0  0  0  0  0  0  0  6  0  0
   -0.1662    0.2310   -3.1856 H   0  0  0  0  0  0  0  0  0  7  0  0
    0.3729   -0.8691   -0.9627 H   0  0  0  0  0  0  0  0  0  8  0  0
   -1.3053   -1.1390   -1.3861 H   0  0  0  0  0  0  0  0  0  9  0  0
   -1.0545    1.1984   -0.0809 H   0  0  0  0  0  0  0  0  0 10  0  0
    2.8516    0.6915    2.4538 H   0  0  0  0  0 15  0  0  0 11  0  0
    3.0010    0.1597    1.9850 H   0  0  0  0  0 15  0  0  0 12  0  0
  2  1  2  0
  3  2  1  0
  4  3  1  0
  6  5  2  0
  7  2  1  0
  8  3  1  0
  9  3  1  0
 10  4  1  0
M  CHG  3   5  -2  11   1  12   1
M  END
