
     RDKit          3D

 12  8  0  0  0  0  0  0  0  0999 V2000
    1.1891    0.9068   -1.8337 O   0  0  0  0  0  0  0  0  0  1  0  0
    0.0505    0.8250   -1.4410 C   0  0  0  0  0  0  0  0  0  2  0  0
   -0.6345   -0.4722   -1.0978 C   0  0  0  0  0  0  0  0  0  3  0  0
   -1.5775   -0.3212   -0.0517 O   0  0  0  0  0  0  0  0  0  4  0  0
    0.3138    1.1439    2.9874 C   0  0  0  0  0  2  0  0  0  5  0  0
   -0.2670    0.1992    2.7526 O   0  0  0  0  0  0  0  0  0  6  0  0
   -0.5947    1.7228   -1.3160 H   0  0  0  0  0  0  0  0  0  7  0  0
    0.1243   -1.2323   -0.9045 H   0  0  0  0  0  0  0  0  0  8  0  0
   -1.1985   -0.7738   -1.9888 H   0  0  0  0  0  0  0  0  0  9  0  0
   -1.1275   -0.3820    0.7994 H   0  0  0  0  0  0  0  0  0 10  0  0
    1.9783   -0.6003    1.1616 H   0  0  0  0  0 15  0  0  0 11  0  0
    1.8742   -1.2034    0.7659 H   0  0  0  0  0 15  0  0  0 12  0  0
  2  1  2  0
  3  2  1  0
  4  3  1  0
  6  5  2  0
  7  2  1  0
  8  3  1  0
  9  3  1  0
 10  4  1  0
M  CHG  3   5  -2  11   1  12   1
M  END
