
     RDKit          3D

 12  9  0  0  0  0  0  0  0  0999 V2000
    1.4656    0.4246   -0.8593 O   0  0  0  0  0  0  0  0  0  1  0  0
    0.2773    0.5761   -1.0757 C   0  0  0  0  0  0  0  0  0  2  0  0
   -0.7295   -0.5317   -1.0976 C   0  0  0  0  0  0  0  0  0  3  0  0
   -1.7366   -0.2594   -0.1200 O   0  0  0  0  0  0  0  0  0  4  0  0
    0.8689    0.3809    2.1581 C   0  0  0  0  0  3  0  0  0  5  0  0
   -0.0895   -0.0401    2.6636 O   0  0  0  0  0  0  0  0  0  6  0  0
   -0.1612    1.5799   -1.2460 H   0  0  0  0  0  0  0  0  0  7  0  0
   -0.2134   -1.4838   -0.9467 H   0  0  0  0  0  0  0  0  0  8  0  0
   -1.2369   -0.5563   -2.0635 H   0  0  0  0  0  0  0  0  0  9  0  0
   -1.3333   -0.3505    0.7581 H   0  0  0  0  0  0  0  0  0 10  0  0
    1.4915    0.5472    0.7666 H   0  0  0  0  0 15  0  0  0 11  0  0
    1.3194   -0.2154    0.9622 H   0  0  0  0  0  0  0  0  0 12  0  0
  2  1  2  0
  3  2  1  0
  4  3  1  0
  6  5  2  0
  7  2  1  0
  8  3  1  0
  9  3  1  0
 10  4  1  0
 12  5  1  0
M  CHG  2   5  -1  11   1
M  END
