
     RDKit          3D

 12 11  0  0  0  0  0  0  0  0999 V2000
   -1.1148    1.4181    1.1663 O   0  0  0  0  0  0  0  0  0  1  0  0
   -0.8627    1.2907   -0.0080 C   0  0  0  0  0  0  0  0  0  2  0  0
   -0.0968    0.1308   -0.6167 C   0  0  2  0  0  0  0  0  0  3  0  0
   -1.0175   -0.6093   -1.4220 O   0  0  0  0  0  0  0  0  0  4  0  0
    0.6290   -0.7226    0.3976 C   0  0  0  0  0  0  0  0  0  5  0  0
    1.7702    0.0210    0.8140 O   0  0  0  0  0  0  0  0  0  6  0  0
   -1.2412    2.0118   -0.7612 H   0  0  0  0  0  0  0  0  0  7  0  0
    0.6386    0.5357   -1.3149 H   0  0  0  0  0  0  0  0  0  8  0  0
   -1.6795   -0.9952   -0.8337 H   0  0  0  0  0  0  0  0  0  9  0  0
    0.9153   -1.6633   -0.0819 H   0  0  0  0  0  0  0  0  0 10  0  0
   -0.0396   -0.9413    1.2349 H   0  0  0  0  0  0  0  0  0 11  0  0
    2.1814   -0.4391    1.5522 H   0  0  0  0  0  0  0  0  0 12  0  0
  2  1  2  0
  3  2  1  0
  4  3  1  0
  5  3  1  0
  6  5  1  0
  7  2  1  0
  3  8  1  6
  9  4  1  0
 10  5  1  0
 11  5  1  0
 12  6  1  0
M  END
