
     RDKit          3D

 12 10  0  0  0  0  0  0  0  0999 V2000
   -1.5875    0.6878    0.4802 O   0  0  0  0  0  0  0  0  0  1  0  0
   -0.8207    1.3624   -0.2026 C   0  0  0  0  0  0  0  0  0  2  0  0
    0.5069    0.9977   -0.6371 C   0  0  0  0  0  0  0  0  0  3  0  0
   -1.2579   -2.0139    1.2049 O   0  0  0  0  0  0  0  0  0  4  0  0
    1.0881   -0.1781   -0.3259 C   0  0  0  0  0  0  0  0  0  5  0  0
    2.3138   -0.5508   -0.7083 O   0  0  0  0  0  0  0  0  0  6  0  0
   -1.1531    2.3629   -0.5371 H   0  0  0  0  0  0  0  0  0  7  0  0
    1.0522    1.7173   -1.2405 H   0  0  0  0  0  0  0  0  0  8  0  0
   -1.5549   -1.0990    1.0304 H   0  0  0  0  0  0  0  0  0  9  0  0
   -1.9766   -2.4203    1.6972 H   0  0  0  0  0  0  0  0  0 10  0  0
    0.6109   -0.9432    0.2737 H   0  0  0  0  0  0  0  0  0 11  0  0
    2.7088    0.1495   -1.2492 H   0  0  0  0  0  0  0  0  0 12  0  0
  2  1  2  0
  3  2  1  0
  5  3  2  0
  6  5  1  0
  7  2  1  0
  8  3  1  0
  9  4  1  0
 10  4  1  0
 11  5  1  0
 12  6  1  0
M  END
