
     RDKit          3D

 12 11  0  0  0  0  0  0  0  0999 V2000
   -2.1088    1.1880    0.0822 O   0  0  0  0  0  0  0  0  0  1  0  0
   -0.9022    1.1439   -0.0336 C   0  0  0  0  0  0  0  0  0  2  0  0
   -0.2242   -0.0795   -0.6053 C   0  0  2  0  0  0  0  0  0  3  0  0
   -1.1786   -1.0461   -0.9556 O   0  0  0  0  0  0  0  0  0  4  0  0
    0.7845   -0.6652    0.3770 C   0  0  0  0  0  0  0  0  0  5  0  0
    1.7794    0.3253    0.6085 O   0  0  0  0  0  0  0  0  0  6  0  0
   -0.2552    1.9822    0.2715 H   0  0  0  0  0  0  0  0  0  7  0  0
    0.3454    0.2508   -1.4885 H   0  0  0  0  0  0  0  0  0  8  0  0
   -2.0445   -0.6399   -0.7722 H   0  0  0  0  0  0  0  0  0  9  0  0
    1.2048   -1.5735   -0.0650 H   0  0  0  0  0  0  0  0  0 10  0  0
    0.2628   -0.9495    1.2963 H   0  0  0  0  0  0  0  0  0 11  0  0
    2.4361   -0.0424    1.2080 H   0  0  0  0  0  0  0  0  0 12  0  0
  2  1  2  0
  3  2  1  0
  4  3  1  0
  5  3  1  0
  6  5  1  0
  7  2  1  0
  3  8  1  6
  9  4  1  0
 10  5  1  0
 11  5  1  0
 12  6  1  0
M  END
