
     RDKit          3D

 16 15  0  0  0  0  0  0  0  0999 V2000
    0.8351   -0.1174   -1.1916 O   0  0  0  0  0  0  0  0  0  1  0  0
   -0.4102   -0.6043   -1.5523 C   0  0  2  0  0  0  0  0  0  2  0  0
   -1.1953    0.1455   -2.5118 C   0  0  0  0  0  0  0  0  0  3  0  0
   -1.5316    0.1311   -1.1036 O   0  0  0  0  0  0  0  0  0  4  0  0
    0.3242    0.7432    2.0129 C   0  0  0  0  0  0  0  0  0  5  0  0
    0.9939    1.5236    1.0737 O   0  0  0  0  0  0  0  0  0  6  0  0
    0.7044   -0.7083    2.0731 C   0  0  0  0  0  0  0  0  0  7  0  0
    1.3894   -1.2902    1.2546 O   0  0  0  0  0  0  0  0  0  8  0  0
   -0.8004    1.0858   -2.8745 H   0  0  0  0  0  0  0  0  0  9  0  0
   -1.8961   -0.3667   -3.1598 H   0  0  0  0  0  0  0  0  0 10  0  0
   -0.7739    0.7458    1.8869 H   0  0  0  0  0  0  0  0  0 11  0  0
    0.4974    1.1668    3.0096 H   0  0  0  0  0  0  0  0  0 12  0  0
    1.2026   -0.6905   -0.4883 H   0  0  0  0  0  0  0  0  0 13  0  0
   -0.5023   -1.6857   -1.4700 H   0  0  0  0  0  0  0  0  0 14  0  0
    0.3009   -1.2684    2.9414 H   0  0  0  0  0  0  0  0  0 15  0  0
    0.8219    1.1540    0.1857 H   0  0  0  0  0  0  0  0  0 16  0  0
  2  1  1  0
  3  2  1  0
  4  3  1  0
  4  2  1  0
  6  5  1  0
  7  5  1  0
  8  7  2  0
  9  3  1  0
 10  3  1  0
 11  5  1  0
 12  5  1  0
 13  1  1  0
  2 14  1  6
 15  7  1  0
 16  6  1  0
M  END
