
     RDKit          3D

 16 15  0  0  0  0  0  0  0  0999 V2000
   -3.1707    0.1181   -0.3867 O   0  0  0  0  0  0  0  0  0  1  0  0
   -2.0743    0.2134   -0.8982 C   0  0  0  0  0  0  0  0  0  2  0  0
   -0.8983   -0.5601   -0.3416 C   0  0  2  0  0  0  0  0  0  3  0  0
   -1.3228   -1.3716    0.7220 O   0  0  0  0  0  0  0  0  0  4  0  0
    0.2057    0.4032    0.1036 C   0  0  2  0  0  0  0  0  0  5  0  0
    0.5419    1.2064   -1.0175 O   0  0  0  0  0  0  0  0  0  6  0  0
    1.4393   -0.3179    0.6095 C   0  0  0  0  0  0  0  0  0  7  0  0
    2.3894    0.7067    0.9153 O   0  0  0  0  0  0  0  0  0  8  0  0
   -1.8883    0.8608   -1.7671 H   0  0  0  0  0  0  0  0  0  9  0  0
   -0.4936   -1.1717   -1.1634 H   0  0  0  0  0  0  0  0  0 10  0  0
   -2.2775   -1.1980    0.8069 H   0  0  0  0  0  0  0  0  0 11  0  0
   -0.1932    1.0184    0.9200 H   0  0  0  0  0  0  0  0  0 12  0  0
    1.3667    1.6500   -0.7766 H   0  0  0  0  0  0  0  0  0 13  0  0
    1.8150   -0.9739   -0.1819 H   0  0  0  0  0  0  0  0  0 14  0  0
    1.1940   -0.9174    1.4873 H   0  0  0  0  0  0  0  0  0 15  0  0
    3.2509    0.2990    1.0482 H   0  0  0  0  0  0  0  0  0 16  0  0
  2  1  2  0
  3  2  1  0
  4  3  1  0
  5  3  1  0
  6  5  1  0
  7  5  1  0
  8  7  1  0
  9  2  1  0
  3 10  1  6
 11  4  1  0
  5 12  1  1
 13  6  1  0
 14  7  1  0
 15  7  1  0
 16  8  1  0
M  END
