
     RDKit          3D

 16 14  0  0  0  0  0  0  0  0999 V2000
   -1.5953    0.7111   -1.5621 O   0  0  0  0  0  3  0  0  0  1  0  0
   -1.0375    0.1546   -0.5108 C   0  0  0  0  0  3  0  0  0  2  0  0
   -2.1065   -0.5368    0.2628 C   0  0  0  0  0  0  0  0  0  3  0  0
   -3.4603   -0.4586   -0.1091 O   0  0  0  0  0  0  0  0  0  4  0  0
    1.4752    0.7257    0.8629 C   0  0  0  0  0  0  0  0  0  5  0  0
    1.7706    1.8020    0.3807 O   0  0  0  0  0  0  0  0  0  6  0  0
    2.1552   -0.5346    0.4103 C   0  0  0  0  0  0  0  0  0  7  0  0
    3.0804   -0.2915   -0.6155 O   0  0  0  0  0  0  0  0  0  8  0  0
   -1.7772   -1.5896    0.2822 H   0  0  0  0  0  0  0  0  0  9  0  0
   -1.9934   -0.1961    1.3000 H   0  0  0  0  0  0  0  0  0 10  0  0
   -3.5020   -0.0047   -0.9632 H   0  0  0  0  0  0  0  0  0 11  0  0
    0.7607    0.6363    1.6994 H   0  0  0  0  0  0  0  0  0 12  0  0
   -0.9067    1.1717   -2.0653 H   0  0  0  0  0  0  0  0  0 13  0  0
    1.3829   -1.2466    0.0889 H   0  0  0  0  0  0  0  0  0 14  0  0
    2.6426   -0.9774    1.2950 H   0  0  0  0  0  0  0  0  0 15  0  0
    3.0578    0.6712   -0.7539 H   0  0  0  0  0  0  0  0  0 16  0  0
  2  1  2  0
  3  2  1  0
  4  3  1  0
  6  5  2  0
  7  5  1  0
  8  7  1  0
  9  3  1  0
 10  3  1  0
 11  4  1  0
 12  5  1  0
 13  1  1  0
 14  7  1  0
 15  7  1  0
 16  8  1  0
M  CHG  2   1   1   2  -1
M  END
