
     RDKit          3D

 16 15  0  0  0  0  0  0  0  0999 V2000
    1.1887    0.5254   -0.9214 O   0  0  0  0  0  0  0  0  0  1  0  0
    0.2449   -0.4989   -0.5692 C   0  0  2  0  0  0  0  0  0  2  0  0
   -1.0652   -0.2715   -1.3027 C   0  0  0  0  0  0  0  0  0  3  0  0
   -1.6744    0.9716   -1.0006 O   0  0  0  0  0  0  0  0  0  4  0  0
    0.2799    0.9069    1.5200 C   0  0  0  0  0  0  0  0  0  5  0  0
    1.0741    1.1024    2.4154 O   0  0  0  0  0  0  0  0  0  6  0  0
    0.0986   -0.4873    0.9585 C   0  0  2  0  0  0  0  0  0  7  0  0
    1.0230   -1.3569    1.5601 O   0  0  0  0  0  0  0  0  0  8  0  0
   -0.8850   -0.3683   -2.3807 H   0  0  0  0  0  0  0  0  0  9  0  0
   -1.7840   -1.0415   -1.0224 H   0  0  0  0  0  0  0  0  0 10  0  0
   -1.0737    1.6556   -1.3225 H   0  0  0  0  0  0  0  0  0 11  0  0
   -0.3245    1.7205    1.1027 H   0  0  0  0  0  0  0  0  0 12  0  0
    1.6077    0.2822   -1.7540 H   0  0  0  0  0  0  0  0  0 13  0  0
    0.6414   -1.4847   -0.8318 H   0  0  0  0  0  0  0  0  0 14  0  0
   -0.9322   -0.7983    1.1992 H   0  0  0  0  0  0  0  0  0 15  0  0
    1.4952   -0.8136    2.2177 H   0  0  0  0  0  0  0  0  0 16  0  0
  2  1  1  0
  3  2  1  0
  4  3  1  0
  6  5  2  0
  7  5  1  0
  7  2  1  0
  8  7  1  0
  9  3  1  0
 10  3  1  0
 11  4  1  0
 12  5  1  0
 13  1  1  0
  2 14  1  6
  7 15  1  6
 16  8  1  0
M  END
