
     RDKit          3D

 16 15  0  0  0  0  0  0  0  0999 V2000
    1.1908    0.5601   -0.9037 O   0  0  0  0  0  0  0  0  0  1  0  0
    0.2527   -0.4800   -0.5839 C   0  0  2  0  0  0  0  0  0  2  0  0
   -1.0511   -0.2495   -1.3272 C   0  0  0  0  0  0  0  0  0  3  0  0
   -1.6761    0.9810   -1.0062 O   0  0  0  0  0  0  0  0  0  4  0  0
    0.2535    0.8827    1.5335 C   0  0  0  0  0  0  0  0  0  5  0  0
    1.0359    1.0661    2.4417 O   0  0  0  0  0  0  0  0  0  6  0  0
    0.0893   -0.5012    0.9419 C   0  0  2  0  0  0  0  0  0  7  0  0
    1.0137   -1.3759    1.5361 O   0  0  0  0  0  0  0  0  0  8  0  0
   -0.8581   -0.3222   -2.4049 H   0  0  0  0  0  0  0  0  0  9  0  0
   -1.7654   -1.0319   -1.0713 H   0  0  0  0  0  0  0  0  0 10  0  0
   -1.0790    1.6776   -1.3069 H   0  0  0  0  0  0  0  0  0 11  0  0
   -0.3522    1.7000    1.1258 H   0  0  0  0  0  0  0  0  0 12  0  0
    1.6196    0.3398   -1.7377 H   0  0  0  0  0  0  0  0  0 13  0  0
    0.6615   -1.4564   -0.8625 H   0  0  0  0  0  0  0  0  0 14  0  0
   -0.9414   -0.8251    1.1644 H   0  0  0  0  0  0  0  0  0 15  0  0
    1.4739   -0.8425    2.2102 H   0  0  0  0  0  0  0  0  0 16  0  0
  2  1  1  0
  3  2  1  0
  4  3  1  0
  6  5  2  0
  7  5  1  0
  7  2  1  0
  8  7  1  0
  9  3  1  0
 10  3  1  0
 11  4  1  0
 12  5  1  0
 13  1  1  0
  2 14  1  6
  7 15  1  6
 16  8  1  0
M  END
