
     RDKit          3D

 16 15  0  0  0  0  0  0  0  0999 V2000
    0.8120   -0.5286   -1.4910 O   0  0  0  0  0  0  0  0  0  1  0  0
   -0.5456   -0.7102   -1.4207 C   0  0  2  0  0  0  0  0  0  2  0  0
   -1.3875    0.1099   -2.2717 C   0  0  0  0  0  0  0  0  0  3  0  0
   -1.3192    0.3552   -0.8479 O   0  0  0  0  0  0  0  0  0  4  0  0
    0.1101    0.5463    2.1243 C   0  0  0  0  0  0  0  0  0  5  0  0
    0.0445    1.5830    1.2133 O   0  0  0  0  0  0  0  0  0  6  0  0
    1.1051   -0.3329    2.0566 C   0  0  0  0  0  0  0  0  0  7  0  0
    2.0888   -0.2322    1.1083 O   0  0  0  0  0  0  0  0  0  8  0  0
   -0.9213    0.8733   -2.8819 H   0  0  0  0  0  0  0  0  0  9  0  0
   -2.3463   -0.2598   -2.6164 H   0  0  0  0  0  0  0  0  0 10  0  0
   -0.4343    1.2858    0.4197 H   0  0  0  0  0  0  0  0  0 11  0  0
   -0.6432    0.5199    2.9047 H   0  0  0  0  0  0  0  0  0 12  0  0
    1.2151   -0.8688   -0.6769 H   0  0  0  0  0  0  0  0  0 13  0  0
   -0.8631   -1.7019   -1.1018 H   0  0  0  0  0  0  0  0  0 14  0  0
    1.2247   -1.1789    2.7165 H   0  0  0  0  0  0  0  0  0 15  0  0
    1.9685    0.6500    0.7169 H   0  0  0  0  0  0  0  0  0 16  0  0
  2  1  1  0
  3  2  1  0
  4  3  1  0
  4  2  1  0
  6  5  1  0
  7  5  2  0
  8  7  1  0
  9  3  1  0
 10  3  1  0
 11  6  1  0
 12  5  1  0
 13  1  1  0
  2 14  1  1
 15  7  1  0
 16  8  1  0
M  END
