
     RDKit          3D

 16 13  0  0  0  0  0  0  0  0999 V2000
   -0.5448   -1.0585   -1.4338 O   0  0  0  0  0  0  0  0  0  1  0  0
   -0.4480    0.0565   -1.8415 C   0  0  0  0  0  0  0  0  0  2  0  0
   -1.6482   -0.2238    1.9134 C   0  0  0  0  0  0  0  0  0  3  0  0
   -2.5528    0.5433    2.2001 O   0  0  0  0  0  0  0  0  0  4  0  0
   -0.4909    0.1234    1.1208 C   0  0  0  0  0  0  0  0  0  5  0  0
    1.2951    1.6392   -1.6239 O   0  0  0  0  0  0  0  0  0  6  0  0
    0.4452   -0.8027    0.8680 C   0  0  0  0  0  0  0  0  0  7  0  0
    1.6110   -0.5222    0.2231 O   0  0  0  0  0  0  0  0  0  8  0  0
   -0.5460    0.9643   -2.4220 H   0  0  0  0  0  0  0  0  0  9  0  0
   -1.6807   -1.2839    2.2577 H   0  0  0  0  0  0  0  0  0 10  0  0
   -0.4332   -0.8397   -1.2108 H   0  0  0  0  0  0  0  0  0 11  0  0
   -0.4607    1.1249    0.7048 H   0  0  0  0  0  0  0  0  0 12  0  0
    1.6556    1.1117   -0.8886 H   0  0  0  0  0  0  0  0  0 13  0  0
    1.2428    2.5396   -1.2754 H   0  0  0  0  0  0  0  0  0 14  0  0
    0.3569   -1.8088    1.2699 H   0  0  0  0  0  0  0  0  0 15  0  0
    2.0318   -1.3436   -0.0582 H   0  0  0  0  0  0  0  0  0 16  0  0
  2  1  2  0
  4  3  2  0
  5  3  1  0
  7  5  2  0
  8  7  1  0
  9  2  1  0
 10  3  1  0
 11  2  1  0
 12  5  1  0
 13  6  1  0
 14  6  1  0
 15  7  1  0
 16  8  1  0
M  END
