
     RDKit          3D

 16 14  0  0  0  0  0  0  0  0999 V2000
    0.3226   -0.9951   -0.3132 O   0  0  0  0  0  0  0  0  0  1  0  0
   -0.4980    0.0610   -0.4382 C   0  0  0  0  0  0  0  0  0  2  0  0
   -1.0941    0.2561   -1.8088 C   0  0  0  0  0  0  0  0  0  3  0  0
   -1.8598    1.4229   -1.9799 O   0  0  0  0  0  0  0  0  0  4  0  0
   -0.1802    0.7342    1.9298 C   0  0  0  0  0  0  0  0  0  5  0  0
    0.6707   -0.0723    2.2706 O   0  0  0  0  0  0  0  0  0  6  0  0
   -0.7674    0.8603    0.6137 C   0  0  0  0  0  0  0  0  0  7  0  0
    2.9124   -2.1223    1.0960 O   0  0  0  0  0  0  0  0  0  8  0  0
   -0.2807    0.1870   -2.5448 H   0  0  0  0  0  0  0  0  0  9  0  0
   -1.7615   -0.5867   -2.0095 H   0  0  0  0  0  0  0  0  0 10  0  0
   -1.2769    2.1883   -1.9048 H   0  0  0  0  0  0  0  0  0 11  0  0
   -0.5654    1.4627    2.6715 H   0  0  0  0  0  0  0  0  0 12  0  0
    0.4299   -1.4492   -1.1604 H   0  0  0  0  0  0  0  0  0 13  0  0
    3.3209   -2.1512    1.9667 H   0  0  0  0  0  0  0  0  0 14  0  0
   -1.4933    1.6460    0.4752 H   0  0  0  0  0  0  0  0  0 15  0  0
    2.1376   -1.5594    1.2299 H   0  0  0  0  0  0  0  0  0 16  0  0
  2  1  1  0
  3  2  1  0
  4  3  1  0
  6  5  2  0
  7  5  1  0
  7  2  2  0
  9  3  1  0
 10  3  1  0
 11  4  1  0
 12  5  1  0
 13  1  1  0
 14  8  1  0
 15  7  1  0
 16  8  1  0
M  END
