
     RDKit          3D

 16 14  0  0  0  0  0  0  0  0999 V2000
   -2.7424    0.4737    0.1300 O   0  0  0  0  0  0  0  0  0  1  0  0
   -2.3414    0.8967   -0.9021 C   0  0  0  0  0  0  0  0  0  2  0  0
   -0.7761   -1.0068    0.5123 C   0  0  0  0  0  0  0  0  0  3  0  0
   -0.9147   -1.4679    1.6247 O   0  0  0  0  0  0  0  0  0  4  0  0
    0.2418    0.0608    0.1959 C   0  0  2  0  0  0  0  0  0  5  0  0
    0.1416    0.4311   -1.1846 O   0  0  0  0  0  0  0  0  0  6  0  0
    1.6439   -0.4169    0.5123 C   0  0  0  0  0  0  0  0  0  7  0  0
    2.5034    0.6678    0.1588 O   0  0  0  0  0  0  0  0  0  8  0  0
   -1.8510    1.3355   -1.7703 H   0  0  0  0  0  0  0  0  0  9  0  0
   -1.2803   -1.4286   -0.3709 H   0  0  0  0  0  0  0  0  0 10  0  0
   -2.5917    0.2988   -0.0386 H   0  0  0  0  0  0  0  0  0 11  0  0
    0.0456    0.9305    0.8349 H   0  0  0  0  0  0  0  0  0 12  0  0
    0.9061    0.9929   -1.3740 H   0  0  0  0  0  0  0  0  0 13  0  0
    1.8730   -1.3043   -0.0841 H   0  0  0  0  0  0  0  0  0 14  0  0
    1.7181   -0.6722    1.5708 H   0  0  0  0  0  0  0  0  0 15  0  0
    3.4179    0.3831    0.2462 H   0  0  0  0  0  0  0  0  0 16  0  0
  2  1  2  0
  4  3  2  0
  5  3  1  0
  6  5  1  0
  7  5  1  0
  8  7  1  0
  9  2  1  0
 10  3  1  0
 11  2  1  0
  5 12  1  1
 13  6  1  0
 14  7  1  0
 15  7  1  0
 16  8  1  0
M  END
