
     RDKit          3D

 16 14  0  0  0  0  0  0  0  0999 V2000
   -3.1317    0.4801   -0.2134 O   0  0  0  0  0  3  0  0  0  1  0  0
   -2.5102   -0.0981   -1.2060 C   0  0  0  0  0  3  0  0  0  2  0  0
   -0.7503   -0.5277    0.4334 C   0  0  0  0  0  0  0  0  0  3  0  0
   -1.4080   -0.8260    1.3962 O   0  0  0  0  0  0  0  0  0  4  0  0
    0.4778    0.3382    0.3983 C   0  0  2  0  0  0  0  0  0  5  0  0
    0.4526    1.0711   -0.8157 O   0  0  0  0  0  0  0  0  0  6  0  0
    1.7420   -0.5091    0.4477 C   0  0  0  0  0  0  0  0  0  7  0  0
    2.8217    0.3976    0.2164 O   0  0  0  0  0  0  0  0  0  8  0  0
   -2.1409    0.7477   -1.8491 H   0  0  0  0  0  0  0  0  0  9  0  0
   -1.2542   -0.7693   -0.6655 H   0  0  0  0  0  0  0  0  0 10  0  0
   -3.2910   -0.1532    0.5141 H   0  0  0  0  0  0  0  0  0 11  0  0
    0.4248    1.0080    1.2644 H   0  0  0  0  0  0  0  0  0 12  0  0
    1.3770    1.2877   -1.0094 H   0  0  0  0  0  0  0  0  0 13  0  0
    1.6784   -1.2633   -0.3429 H   0  0  0  0  0  0  0  0  0 14  0  0
    1.8353   -1.0144    1.4112 H   0  0  0  0  0  0  0  0  0 15  0  0
    3.6138   -0.1054   -0.0021 H   0  0  0  0  0  0  0  0  0 16  0  0
  2  1  2  0
  4  3  2  0
  5  3  1  0
  6  5  1  0
  7  5  1  0
  8  7  1  0
  9  2  1  0
 10  3  1  0
 11  1  1  0
  5 12  1  1
 13  6  1  0
 14  7  1  0
 15  7  1  0
 16  8  1  0
M  CHG  2   1   1   2  -1
M  END
