
     RDKit          3D

 16 15  0  0  0  0  0  0  0  0999 V2000
   -3.0540   -0.6026   -0.5000 O   0  0  0  0  0  0  0  0  0  1  0  0
   -1.8364    0.0586   -0.7037 C   0  0  0  0  0  0  0  0  0  2  0  0
   -0.9404   -0.0194    0.4972 C   0  0  0  0  0  0  0  0  0  3  0  0
   -1.3252   -0.5628    1.5191 O   0  0  0  0  0  0  0  0  0  4  0  0
    0.4483    0.5694    0.3978 C   0  0  2  0  0  0  0  0  0  5  0  0
    0.5374    1.3968   -0.7484 O   0  0  0  0  0  0  0  0  0  6  0  0
    1.4685   -0.5599    0.3288 C   0  0  0  0  0  0  0  0  0  7  0  0
    2.7320    0.0840    0.1751 O   0  0  0  0  0  0  0  0  0  8  0  0
   -1.9827    1.1179   -0.9452 H   0  0  0  0  0  0  0  0  0  9  0  0
   -1.2986   -0.3545   -1.5653 H   0  0  0  0  0  0  0  0  0 10  0  0
   -3.0351   -0.9001    0.4255 H   0  0  0  0  0  0  0  0  0 11  0  0
    0.6340    1.1331    1.3196 H   0  0  0  0  0  0  0  0  0 12  0  0
    1.4829    1.5407   -0.8928 H   0  0  0  0  0  0  0  0  0 13  0  0
    1.2441   -1.1962   -0.5316 H   0  0  0  0  0  0  0  0  0 14  0  0
    1.4244   -1.1638    1.2380 H   0  0  0  0  0  0  0  0  0 15  0  0
    3.3875   -0.5706   -0.0842 H   0  0  0  0  0  0  0  0  0 16  0  0
  2  1  1  0
  3  2  1  0
  4  3  2  0
  5  3  1  0
  6  5  1  0
  7  5  1  0
  8  7  1  0
  9  2  1  0
 10  2  1  0
 11  1  1  0
  5 12  1  1
 13  6  1  0
 14  7  1  0
 15  7  1  0
 16  8  1  0
M  END
