
     RDKit          3D

 16 14  0  0  0  0  0  0  0  0999 V2000
   -2.8392    0.4132    0.0177 O   0  0  0  0  0  0  0  0  0  1  0  0
   -2.3361    0.9273   -0.9233 C   0  0  0  0  0  0  0  0  0  2  0  0
   -0.8009   -0.9576    0.5261 C   0  0  0  0  0  0  0  0  0  3  0  0
   -0.9733   -1.3690    1.6531 O   0  0  0  0  0  0  0  0  0  4  0  0
    0.2501    0.0721    0.1910 C   0  0  2  0  0  0  0  0  0  5  0  0
    0.1514    0.4322   -1.1921 O   0  0  0  0  0  0  0  0  0  6  0  0
    1.6361   -0.4517    0.5061 C   0  0  0  0  0  0  0  0  0  7  0  0
    2.5326    0.6006    0.1493 O   0  0  0  0  0  0  0  0  0  8  0  0
   -1.8354    1.3462   -1.7976 H   0  0  0  0  0  0  0  0  0  9  0  0
   -1.2955   -1.4017   -0.3511 H   0  0  0  0  0  0  0  0  0 10  0  0
   -2.5556    0.4239    0.0058 H   0  0  0  0  0  0  0  0  0 11  0  0
    0.0846    0.9525    0.8237 H   0  0  0  0  0  0  0  0  0 12  0  0
    0.9228    0.9795   -1.3933 H   0  0  0  0  0  0  0  0  0 13  0  0
    1.8330   -1.3480   -0.0884 H   0  0  0  0  0  0  0  0  0 14  0  0
    1.7024   -0.7075    1.5652 H   0  0  0  0  0  0  0  0  0 15  0  0
    3.4363    0.2849    0.2404 H   0  0  0  0  0  0  0  0  0 16  0  0
  2  1  2  0
  4  3  2  0
  5  3  1  0
  6  5  1  0
  7  5  1  0
  8  7  1  0
  9  2  1  0
 10  3  1  0
 11  2  1  0
  5 12  1  1
 13  6  1  0
 14  7  1  0
 15  7  1  0
 16  8  1  0
M  END
