
     RDKit          3D

 16 15  0  0  0  0  0  0  0  0999 V2000
   -1.3562    0.7709   -1.0998 O   0  0  0  0  0  0  0  0  0  1  0  0
   -0.0449    1.0930   -1.3612 C   0  0  2  0  0  0  0  0  0  2  0  0
    0.6117    0.5119   -2.5163 C   0  0  0  0  0  0  0  0  0  3  0  0
    0.9505    0.0777   -1.1750 O   0  0  0  0  0  0  0  0  0  4  0  0
    0.0639   -0.1557    1.8760 C   0  0  0  0  0  0  0  0  0  5  0  0
   -1.3094    0.1036    1.6603 O   0  0  0  0  0  0  0  0  0  6  0  0
    0.4410   -1.5456    1.4468 C   0  0  0  0  0  0  0  0  0  7  0  0
   -0.3947   -2.4082    1.2882 O   0  0  0  0  0  0  0  0  0  8  0  0
    0.0716   -0.2148   -3.1111 H   0  0  0  0  0  0  0  0  0  9  0  0
    1.3897    1.0624   -3.0339 H   0  0  0  0  0  0  0  0  0 10  0  0
    0.3252   -0.0473    2.9385 H   0  0  0  0  0  0  0  0  0 11  0  0
    0.6683    0.5647    1.3231 H   0  0  0  0  0  0  0  0  0 12  0  0
   -1.4686    0.6972   -0.1315 H   0  0  0  0  0  0  0  0  0 13  0  0
    0.2546    2.0801   -1.0073 H   0  0  0  0  0  0  0  0  0 14  0  0
    1.5189   -1.7426    1.2911 H   0  0  0  0  0  0  0  0  0 15  0  0
   -1.7291   -0.7735    1.6141 H   0  0  0  0  0  0  0  0  0 16  0  0
  2  1  1  0
  3  2  1  0
  4  3  1  0
  4  2  1  0
  6  5  1  0
  7  5  1  0
  8  7  2  0
  9  3  1  0
 10  3  1  0
 11  5  1  0
 12  5  1  0
 13  1  1  0
  2 14  1  1
 15  7  1  0
 16  6  1  0
M  END
