
     RDKit          3D

 16 15  0  0  0  0  0  0  0  0999 V2000
   -1.7358   -1.0878   -0.4435 O   0  0  0  0  0  0  0  0  0  1  0  0
   -1.6624    0.0428    0.4037 C   0  0  0  0  0  0  0  0  0  2  0  0
   -0.3685    0.8632    0.2338 C   0  0  1  0  0  0  0  0  0  3  0  0
   -0.4018    1.9877    1.0731 O   0  0  0  0  0  0  0  0  0  4  0  0
    0.8578    0.0240    0.5412 C   0  0  0  0  0  0  0  0  0  5  0  0
    1.4280    0.1833    1.6091 O   0  0  0  0  0  0  0  0  0  6  0  0
    1.3510   -0.9961   -0.4677 C   0  0  0  0  0  0  0  0  0  7  0  0
    1.2970   -0.5504   -1.8177 O   0  0  0  0  0  0  0  0  0  8  0  0
   -1.7206   -0.3267    1.4251 H   0  0  0  0  0  0  0  0  0  9  0  0
   -0.3247    1.1902   -0.8107 H   0  0  0  0  0  0  0  0  0 10  0  0
   -1.7184   -0.7846   -1.3599 H   0  0  0  0  0  0  0  0  0 11  0  0
   -2.5032    0.7264    0.2530 H   0  0  0  0  0  0  0  0  0 12  0  0
    0.2393    1.8068    1.7826 H   0  0  0  0  0  0  0  0  0 13  0  0
    0.6850   -1.8578   -0.4157 H   0  0  0  0  0  0  0  0  0 14  0  0
    2.3473   -1.3144   -0.1581 H   0  0  0  0  0  0  0  0  0 15  0  0
    2.0010    0.0939   -1.9523 H   0  0  0  0  0  0  0  0  0 16  0  0
  2  1  1  0
  3  2  1  0
  4  3  1  0
  5  3  1  0
  6  5  2  0
  7  5  1  0
  8  7  1  0
  9  2  1  0
  3 10  1  6
 11  1  1  0
 12  2  1  0
 13  4  1  0
 14  7  1  0
 15  7  1  0
 16  8  1  0
M  END
