
     RDKit          3D

 16 16  0  0  0  0  0  0  0  0999 V2000
    0.1963   -1.2947   -1.7214 O   0  0  0  0  0  0  0  0  0  1  0  0
   -0.6404   -0.6934   -0.7818 C   0  0  2  0  0  0  0  0  0  2  0  0
   -0.6201    0.7965   -0.5560 C   0  0  1  0  0  0  0  0  0  3  0  0
   -1.8055    1.5227   -0.2999 O   0  0  0  0  0  0  0  0  0  4  0  0
   -0.2011   -0.1353    0.5481 C   0  0  0  0  0  0  0  0  0  5  0  0
   -1.0832   -0.2845    1.6247 O   0  0  0  0  0  0  0  0  0  6  0  0
    1.2243   -0.2452    1.0267 C   0  0  0  0  0  0  0  0  0  7  0  0
    2.1894   -0.2906   -0.0334 O   0  0  0  0  0  0  0  0  0  8  0  0
   -2.3722    1.4558   -1.0781 H   0  0  0  0  0  0  0  0  0  9  0  0
    0.1425    1.3608   -1.0906 H   0  0  0  0  0  0  0  0  0 10  0  0
    1.1073   -1.2242   -1.3858 H   0  0  0  0  0  0  0  0  0 11  0  0
   -1.6214   -1.1487   -0.7558 H   0  0  0  0  0  0  0  0  0 12  0  0
   -1.7460    0.4143    1.5353 H   0  0  0  0  0  0  0  0  0 13  0  0
    1.3303   -1.1815    1.5697 H   0  0  0  0  0  0  0  0  0 14  0  0
    1.4363    0.5718    1.7220 H   0  0  0  0  0  0  0  0  0 15  0  0
    2.3246    0.6053   -0.3619 H   0  0  0  0  0  0  0  0  0 16  0  0
  2  1  1  0
  3  2  1  0
  4  3  1  0
  5  3  1  0
  5  2  1  0
  6  5  1  0
  7  5  1  0
  8  7  1  0
  9  4  1  0
  3 10  1  6
 11  1  1  0
  2 12  1  1
 13  6  1  0
 14  7  1  0
 15  7  1  0
 16  8  1  0
M  END
