
     RDKit          3D

 16 14  0  0  0  0  0  0  0  0999 V2000
   -0.7447    0.8724   -2.5165 O   0  0  0  0  0  0  0  0  0  1  0  0
   -0.1916   -0.2050   -2.5961 C   0  0  0  0  0  0  0  0  0  2  0  0
    1.2788   -0.3507   -2.3517 C   0  0  0  0  0  0  0  0  0  3  0  0
    1.8863    0.8794   -2.0697 O   0  0  0  0  0  0  0  0  0  4  0  0
   -0.2560   -1.3555    0.9617 O   0  0  0  0  0  0  0  0  0  5  0  0
   -0.7261   -0.3521    1.4458 C   0  0  0  0  0  0  0  0  0  6  0  0
   -0.8662   -0.1197    2.9261 C   0  0  0  0  0  0  0  0  0  7  0  0
   -0.8726    1.2544    3.2721 O   0  0  0  0  0  0  0  0  0  8  0  0
   -0.7594   -1.1228   -2.8487 H   0  0  0  0  0  0  0  0  0  9  0  0
    1.4055   -1.0626   -1.5240 H   0  0  0  0  0  0  0  0  0 10  0  0
    1.7332   -0.8286   -3.2337 H   0  0  0  0  0  0  0  0  0 11  0  0
    1.1677    1.5336   -2.1137 H   0  0  0  0  0  0  0  0  0 12  0  0
   -1.1146    0.4770    0.8177 H   0  0  0  0  0  0  0  0  0 13  0  0
   -1.8472   -0.5104    3.2150 H   0  0  0  0  0  0  0  0  0 14  0  0
   -0.1131   -0.7049    3.4601 H   0  0  0  0  0  0  0  0  0 15  0  0
    0.0208    1.5999    3.1629 H   0  0  0  0  0  0  0  0  0 16  0  0
  2  1  2  0
  3  2  1  0
  4  3  1  0
  6  5  2  0
  7  6  1  0
  8  7  1  0
  9  2  1  0
 10  3  1  0
 11  3  1  0
 12  4  1  0
 13  6  1  0
 14  7  1  0
 15  7  1  0
 16  8  1  0
M  END
