
     RDKit          3D

 16 14  0  0  0  0  0  0  0  0999 V2000
   -2.5204   -0.1440    0.5446 O   0  0  0  0  0  0  0  0  0  1  0  0
   -2.1541    0.1530   -0.7293 C   0  0  0  0  0  0  0  0  0  2  0  0
   -1.4875    1.2642   -1.0326 C   0  0  0  0  0  0  0  0  0  3  0  0
   -1.1496    2.1431   -0.0114 O   0  0  0  0  0  0  0  0  0  4  0  0
    1.0828   -0.3874    0.9695 C   0  0  0  0  0  0  0  0  0  5  0  0
    1.3073    0.7943    0.7761 O   0  0  0  0  0  0  0  0  0  6  0  0
    1.8665   -1.4721    0.3113 C   0  0  0  0  0  0  0  0  0  7  0  0
    2.9321   -1.0171   -0.4752 O   0  0  0  0  0  0  0  0  0  8  0  0
   -2.4730   -0.5822   -1.4539 H   0  0  0  0  0  0  0  0  0  9  0  0
   -1.2417    1.5604   -2.0462 H   0  0  0  0  0  0  0  0  0 10  0  0
   -2.3076    0.6538    1.0595 H   0  0  0  0  0  0  0  0  0 11  0  0
    0.2701   -0.7152    1.6431 H   0  0  0  0  0  0  0  0  0 12  0  0
   -0.2579    1.9121    0.3029 H   0  0  0  0  0  0  0  0  0 13  0  0
    1.1418   -2.0431   -0.2916 H   0  0  0  0  0  0  0  0  0 14  0  0
    2.2172   -2.1675    1.0878 H   0  0  0  0  0  0  0  0  0 15  0  0
    2.8934   -0.0481   -0.4716 H   0  0  0  0  0  0  0  0  0 16  0  0
  2  1  1  0
  3  2  2  0
  4  3  1  0
  6  5  2  0
  7  5  1  0
  8  7  1  0
  9  2  1  0
 10  3  1  0
 11  1  1  0
 12  5  1  0
 13  4  1  0
 14  7  1  0
 15  7  1  0
 16  8  1  0
M  END
