
     RDKit          3D

 16 15  0  0  0  0  0  0  0  0999 V2000
   -0.8520    0.7826   -1.5100 O   0  0  0  0  0  0  0  0  0  1  0  0
   -0.2575   -0.4183   -1.4194 C   0  0  1  0  0  0  0  0  0  2  0  0
    1.1594   -0.4629   -1.9379 C   0  0  0  0  0  0  0  0  0  3  0  0
    1.9327    0.6343   -1.5059 O   0  0  0  0  0  0  0  0  0  4  0  0
   -0.1535   -0.7629    0.1655 O   0  0  0  0  0  3  0  0  0  5  0  0
   -0.6976    0.1498    0.8573 C   0  0  0  0  0  3  0  0  0  6  0  0
   -0.7240   -0.1665    2.3331 C   0  0  0  0  0  0  0  0  0  7  0  0
   -0.8736    0.9589    3.1712 O   0  0  0  0  0  0  0  0  0  8  0  0
   -0.8725   -1.2616   -1.7553 H   0  0  0  0  0  0  0  0  0  9  0  0
    1.6515   -1.3771   -1.6040 H   0  0  0  0  0  0  0  0  0 10  0  0
    1.0915   -0.5056   -3.0358 H   0  0  0  0  0  0  0  0  0 11  0  0
    1.3609    1.4091   -1.5891 H   0  0  0  0  0  0  0  0  0 12  0  0
   -1.0605    1.0101   -0.4883 H   0  0  0  0  0  0  0  0  0 13  0  0
   -1.6264   -0.7635    2.4994 H   0  0  0  0  0  0  0  0  0 14  0  0
    0.1351   -0.7872    2.6074 H   0  0  0  0  0  0  0  0  0 15  0  0
   -0.2146    1.6177    2.9210 H   0  0  0  0  0  0  0  0  0 16  0  0
  2  1  1  0
  3  2  1  0
  4  3  1  0
  5  2  1  0
  6  5  2  0
  7  6  1  0
  8  7  1  0
  2  9  1  6
 10  3  1  0
 11  3  1  0
 12  4  1  0
 13  1  1  0
 14  7  1  0
 15  7  1  0
 16  8  1  0
M  CHG  2   5   1   6  -1
M  END
