
     RDKit          3D

 16 15  0  0  0  0  0  0  0  0999 V2000
    1.9944   -0.2425    0.7109 O   0  0  0  0  0  0  0  0  0  1  0  0
    1.0957   -0.2455   -0.2564 C   0  0  0  0  0  0  0  0  0  2  0  0
    0.8610   -0.5935   -1.6611 C   0  0  1  0  0  0  0  0  0  3  0  0
    0.6586   -1.9605   -2.0828 O   0  0  0  0  0  0  0  0  0  4  0  0
   -0.0992   -0.0122   -0.7088 C   0  0  0  0  0  0  0  0  0  5  0  0
    0.5420    0.7795    2.7045 O   0  0  0  0  0  0  0  0  0  6  0  0
   -1.4841    0.4277   -0.5535 C   0  0  0  0  0  0  0  0  0  7  0  0
   -1.6738    0.9166    0.7915 O   0  0  0  0  0  0  0  0  0  8  0  0
    1.5250   -2.3092   -2.3253 H   0  0  0  0  0  0  0  0  0  9  0  0
    1.2993   -0.0072   -2.4772 H   0  0  0  0  0  0  0  0  0 10  0  0
    1.5453    0.1475    1.5161 H   0  0  0  0  0  0  0  0  0 11  0  0
    0.3300    0.1091    3.3668 H   0  0  0  0  0  0  0  0  0 12  0  0
   -0.2814    0.8738    2.1828 H   0  0  0  0  0  0  0  0  0 13  0  0
   -2.1593   -0.4065   -0.7602 H   0  0  0  0  0  0  0  0  0 14  0  0
   -1.7055    1.2109   -1.2832 H   0  0  0  0  0  0  0  0  0 15  0  0
   -2.5798    1.2300    0.8894 H   0  0  0  0  0  0  0  0  0 16  0  0
  2  1  1  0
  3  2  1  0
  4  3  1  0
  5  3  1  0
  5  2  2  0
  7  5  1  0
  8  7  1  0
  9  4  1  0
  3 10  1  6
 11  1  1  0
 12  6  1  0
 13  6  1  0
 14  7  1  0
 15  7  1  0
 16  8  1  0
M  END
