
     RDKit          3D

 16 16  0  0  0  0  0  0  0  0999 V2000
    0.4072   -0.5613   -1.9142 O   0  0  0  0  0  0  0  0  0  1  0  0
   -0.5695   -0.3839   -0.9344 C   0  0  2  0  0  0  0  0  0  2  0  0
   -0.7908    1.0097   -0.4331 C   0  0  1  0  0  0  0  0  0  3  0  0
   -2.0771    1.4448   -0.0541 O   0  0  0  0  0  0  0  0  0  4  0  0
   -0.1743   -0.0255    0.4744 C   0  0  0  0  0  0  0  0  0  5  0  0
   -0.9561   -0.5267    1.5165 O   0  0  0  0  0  0  0  0  0  6  0  0
    1.2964   -0.0128    0.7777 C   0  0  0  0  0  0  0  0  0  7  0  0
    1.8058   -1.3256    0.4876 O   0  0  0  0  0  0  0  0  0  8  0  0
   -2.6699    1.3093   -0.8029 H   0  0  0  0  0  0  0  0  0  9  0  0
   -0.1513    1.7850   -0.8476 H   0  0  0  0  0  0  0  0  0 10  0  0
    1.0369   -1.1975   -1.5458 H   0  0  0  0  0  0  0  0  0 11  0  0
   -1.4489   -1.0132   -1.0133 H   0  0  0  0  0  0  0  0  0 12  0  0
   -1.7253    0.0544    1.5852 H   0  0  0  0  0  0  0  0  0 13  0  0
    1.4555    0.2366    1.8302 H   0  0  0  0  0  0  0  0  0 14  0  0
    1.8001    0.7324    0.1549 H   0  0  0  0  0  0  0  0  0 15  0  0
    2.7506   -1.3338    0.6775 H   0  0  0  0  0  0  0  0  0 16  0  0
  2  1  1  0
  3  2  1  0
  4  3  1  0
  5  3  1  0
  5  2  1  0
  6  5  1  0
  7  5  1  0
  8  7  1  0
  9  4  1  0
  3 10  1  6
 11  1  1  0
  2 12  1  1
 13  6  1  0
 14  7  1  0
 15  7  1  0
 16  8  1  0
M  END
