
     RDKit          3D

 16 16  0  0  0  0  0  0  0  0999 V2000
   -0.1074    2.0136   -0.8275 O   0  0  0  0  0  0  0  0  0  1  0  0
    0.1669    1.2105    0.2887 C   0  0  2  0  0  0  0  0  0  2  0  0
    1.3265    0.2554    0.2725 C   0  0  1  0  0  0  0  0  0  3  0  0
    2.0842   -0.0019    1.4130 O   0  0  0  0  0  0  0  0  0  4  0  0
   -0.0765   -0.2682    0.1645 C   0  0  0  0  0  0  0  0  0  5  0  0
   -0.4919   -0.9376    1.3425 O   0  0  0  0  0  0  0  0  0  6  0  0
   -0.5897   -0.8893   -1.1039 C   0  0  0  0  0  0  0  0  0  7  0  0
   -2.0083   -1.0246   -1.1302 O   0  0  0  0  0  0  0  0  0  8  0  0
    1.5280   -0.5600    1.9762 H   0  0  0  0  0  0  0  0  0  9  0  0
    1.9139    0.2668   -0.6378 H   0  0  0  0  0  0  0  0  0 10  0  0
    0.5224    2.7437   -0.8254 H   0  0  0  0  0  0  0  0  0 11  0  0
   -0.0809    1.6324    1.2598 H   0  0  0  0  0  0  0  0  0 12  0  0
   -1.3246   -0.5383    1.6236 H   0  0  0  0  0  0  0  0  0 13  0  0
   -0.1075   -1.8627   -1.2498 H   0  0  0  0  0  0  0  0  0 14  0  0
   -0.3240   -0.2470   -1.9410 H   0  0  0  0  0  0  0  0  0 15  0  0
   -2.2309   -1.7637   -0.5537 H   0  0  0  0  0  0  0  0  0 16  0  0
  2  1  1  0
  3  2  1  0
  4  3  1  0
  5  3  1  0
  5  2  1  0
  6  5  1  0
  7  5  1  0
  8  7  1  0
  9  4  1  0
  3 10  1  6
 11  1  1  0
  2 12  1  1
 13  6  1  0
 14  7  1  0
 15  7  1  0
 16  8  1  0
M  END
