
     RDKit          3D

 16 15  0  0  0  0  0  0  0  0999 V2000
   -0.4213   -1.2429   -2.0603 O   0  0  0  0  0  0  0  0  0  1  0  0
   -0.0741   -0.2488   -1.2247 C   0  0  0  0  0  0  0  0  0  2  0  0
   -0.3962    1.1225   -0.8504 C   0  0  1  0  0  0  0  0  0  3  0  0
   -1.5927    1.4377   -0.1030 O   0  0  0  0  0  0  0  0  0  4  0  0
    0.5950    0.2213   -0.2146 C   0  0  0  0  0  0  0  0  0  5  0  0
   -2.1083   -1.1423    1.5514 O   0  0  0  0  0  0  0  0  0  6  0  0
    1.5237    0.0882    0.9277 C   0  0  0  0  0  0  0  0  0  7  0  0
    2.5927   -0.8243    0.7136 O   0  0  0  0  0  0  0  0  0  8  0  0
   -2.2605    1.7208   -0.7403 H   0  0  0  0  0  0  0  0  0  9  0  0
   -0.1010    1.9699   -1.4734 H   0  0  0  0  0  0  0  0  0 10  0  0
    0.1466   -2.0058   -1.8652 H   0  0  0  0  0  0  0  0  0 11  0  0
   -1.9180   -1.0763    0.6123 H   0  0  0  0  0  0  0  0  0 12  0  0
   -2.2467   -0.2199    1.7875 H   0  0  0  0  0  0  0  0  0 13  0  0
    0.9727   -0.2789    1.7943 H   0  0  0  0  0  0  0  0  0 14  0  0
    1.8921    1.0832    1.1928 H   0  0  0  0  0  0  0  0  0 15  0  0
    3.2097   -0.4305    0.0869 H   0  0  0  0  0  0  0  0  0 16  0  0
  2  1  1  0
  3  2  1  0
  4  3  1  0
  5  3  1  0
  5  2  2  0
  7  5  1  0
  8  7  1  0
  9  4  1  0
  3 10  1  6
 11  1  1  0
 12  6  1  0
 13  6  1  0
 14  7  1  0
 15  7  1  0
 16  8  1  0
M  END
