
     RDKit          3D

 16 16  0  0  0  0  0  0  0  0999 V2000
    0.0237   -1.3498   -1.6919 O   0  0  0  0  0  0  0  0  0  1  0  0
   -0.7262   -0.6481   -0.7489 C   0  0  2  0  0  0  0  0  0  2  0  0
   -0.5549    0.8371   -0.5595 C   0  0  1  0  0  0  0  0  0  3  0  0
   -1.6577    1.6814   -0.2956 O   0  0  0  0  0  0  0  0  0  4  0  0
   -0.2014   -0.1076    0.5569 C   0  0  0  0  0  0  0  0  0  5  0  0
   -1.0668   -0.1466    1.6564 O   0  0  0  0  0  0  0  0  0  6  0  0
    1.2181   -0.3464    1.0051 C   0  0  0  0  0  0  0  0  0  7  0  0
    2.1475   -0.5086   -0.0751 O   0  0  0  0  0  0  0  0  0  8  0  0
   -2.2575    1.6352   -1.0503 H   0  0  0  0  0  0  0  0  0  9  0  0
    0.2455    1.3132   -1.1237 H   0  0  0  0  0  0  0  0  0 10  0  0
    0.9451   -1.3634   -1.3781 H   0  0  0  0  0  0  0  0  0 11  0  0
   -1.7465   -1.0029   -0.6905 H   0  0  0  0  0  0  0  0  0 12  0  0
   -1.6567    0.6149    1.5680 H   0  0  0  0  0  0  0  0  0 13  0  0
    1.2461   -1.2769    1.5674 H   0  0  0  0  0  0  0  0  0 14  0  0
    1.5256    0.4604    1.6761 H   0  0  0  0  0  0  0  0  0 15  0  0
    2.3618    0.3626   -0.4271 H   0  0  0  0  0  0  0  0  0 16  0  0
  2  1  1  0
  3  2  1  0
  4  3  1  0
  5  3  1  0
  5  2  1  0
  6  5  1  0
  7  5  1  0
  8  7  1  0
  9  4  1  0
  3 10  1  6
 11  1  1  0
  2 12  1  1
 13  6  1  0
 14  7  1  0
 15  7  1  0
 16  8  1  0
M  END
