
     RDKit          3D

 16 15  0  0  0  0  0  0  0  0999 V2000
   -0.0753   -0.7640   -2.5388 O   0  0  0  0  0  0  0  0  0  1  0  0
   -0.4418   -0.5097   -1.2026 C   0  0  2  0  0  0  0  0  0  2  0  0
   -0.6203    0.9377   -0.8127 C   0  0  1  0  0  0  0  0  0  3  0  0
   -1.6579    1.3087    0.0723 O   0  0  0  0  0  0  0  0  0  4  0  0
    0.4631    0.1466   -0.2761 C   0  0  0  0  0  0  0  0  0  5  0  0
   -1.0918   -0.4745    2.6357 O   0  0  0  0  0  0  0  0  0  6  0  0
    1.5609    0.1299    0.4544 C   0  0  0  0  0  0  0  0  0  7  0  0
    2.3322   -0.9848    0.5647 O   0  0  0  0  0  0  0  0  0  8  0  0
   -2.4667    1.3834   -0.4467 H   0  0  0  0  0  0  0  0  0  9  0  0
   -0.3927    1.6752   -1.5821 H   0  0  0  0  0  0  0  0  0 10  0  0
    0.5669   -1.4845   -2.5313 H   0  0  0  0  0  0  0  0  0 11  0  0
   -1.1623   -1.2086   -0.7842 H   0  0  0  0  0  0  0  0  0 12  0  0
   -1.7637    0.1734    2.3967 H   0  0  0  0  0  0  0  0  0 13  0  0
   -0.4791   -0.4113    1.8932 H   0  0  0  0  0  0  0  0  0 14  0  0
    1.8736    1.0156    0.9991 H   0  0  0  0  0  0  0  0  0 15  0  0
    3.0571   -0.8165    1.1777 H   0  0  0  0  0  0  0  0  0 16  0  0
  2  1  1  0
  3  2  1  0
  4  3  1  0
  5  3  1  0
  5  2  1  0
  7  5  2  0
  8  7  1  0
  9  4  1  0
  3 10  1  6
 11  1  1  0
  2 12  1  1
 13  6  1  0
 14  6  1  0
 15  7  1  0
 16  8  1  0
M  END
