
     RDKit          3D

 16 16  0  0  0  0  0  0  0  0999 V2000
    0.6512   -0.0803   -1.9659 O   0  0  0  0  0  0  0  0  0  1  0  0
   -0.4060   -0.1646   -1.0588 C   0  0  2  0  0  0  0  0  0  2  0  0
   -0.7564    1.0750   -0.2899 C   0  0  1  0  0  0  0  0  0  3  0  0
   -2.0894    1.3482    0.0764 O   0  0  0  0  0  0  0  0  0  4  0  0
   -0.1322   -0.0942    0.4201 C   0  0  0  0  0  0  0  0  0  5  0  0
   -0.9309   -0.8743    1.2656 O   0  0  0  0  0  0  0  0  0  6  0  0
    1.3061   -0.0847    0.8414 C   0  0  0  0  0  0  0  0  0  7  0  0
    1.9571   -1.3085    0.4762 O   0  0  0  0  0  0  0  0  0  8  0  0
   -2.6056    1.4661   -0.7293 H   0  0  0  0  0  0  0  0  0  9  0  0
   -0.1394    1.9506   -0.4783 H   0  0  0  0  0  0  0  0  0 10  0  0
    1.4261   -2.0257    0.8464 H   0  0  0  0  0  0  0  0  0 11  0  0
   -1.2336   -0.8036   -1.3472 H   0  0  0  0  0  0  0  0  0 12  0  0
   -1.7599   -0.3933    1.3915 H   0  0  0  0  0  0  0  0  0 13  0  0
    1.3866    0.0883    1.9190 H   0  0  0  0  0  0  0  0  0 14  0  0
    1.8447    0.7035    0.3186 H   0  0  0  0  0  0  0  0  0 15  0  0
    1.3111   -0.7230   -1.6687 H   0  0  0  0  0  0  0  0  0 16  0  0
  2  1  1  0
  3  2  1  0
  4  3  1  0
  5  3  1  0
  5  2  1  0
  6  5  1  0
  7  5  1  0
  8  7  1  0
  9  4  1  0
  3 10  1  6
 11  8  1  0
  2 12  1  1
 13  6  1  0
 14  7  1  0
 15  7  1  0
 16  1  1  0
M  END
