
     RDKit          3D

 16 14  0  0  0  0  0  0  0  0999 V2000
   -1.8918    0.0493    0.0448 O   0  0  0  0  0  0  0  0  0  1  0  0
   -1.3844   -0.5450   -0.8798 C   0  0  0  0  0  0  0  0  0  2  0  0
   -0.3758    0.0497   -1.8192 C   0  0  0  0  0  0  0  0  0  3  0  0
   -0.3411   -0.5934   -3.0832 O   0  0  0  0  0  0  0  0  0  4  0  0
    0.2434   -0.2649    2.2357 C   0  0  0  0  0  0  0  0  0  5  0  0
    0.7090   -1.3850    2.2269 O   0  0  0  0  0  0  0  0  0  6  0  0
    0.9077    0.8527    1.4931 C   0  0  0  0  0  0  0  0  0  7  0  0
    1.9539    0.3805    0.6854 O   0  0  0  0  0  0  0  0  0  8  0  0
   -1.6307   -1.6073   -1.0933 H   0  0  0  0  0  0  0  0  0  9  0  0
    0.6057   -0.0998   -1.3564 H   0  0  0  0  0  0  0  0  0 10  0  0
   -1.1149   -0.3146   -3.5844 H   0  0  0  0  0  0  0  0  0 11  0  0
   -0.6799   -0.0286    2.7943 H   0  0  0  0  0  0  0  0  0 12  0  0
   -0.5350    1.1300   -1.8845 H   0  0  0  0  0  0  0  0  0 13  0  0
    0.1511    1.3611    0.8860 H   0  0  0  0  0  0  0  0  0 14  0  0
    1.2604    1.5883    2.2343 H   0  0  0  0  0  0  0  0  0 15  0  0
    2.0966   -0.5356    0.9801 H   0  0  0  0  0  0  0  0  0 16  0  0
  2  1  2  0
  3  2  1  0
  4  3  1  0
  6  5  2  0
  7  5  1  0
  8  7  1  0
  9  2  1  0
 10  3  1  0
 11  4  1  0
 12  5  1  0
 13  3  1  0
 14  7  1  0
 15  7  1  0
 16  8  1  0
M  END
