
     RDKit          3D

 16 14  0  0  0  0  0  0  0  0999 V2000
    2.1433    0.3126   -1.2865 O   0  0  0  0  0  0  0  0  0  1  0  0
    2.0022   -0.6313   -0.3122 C   0  0  0  0  0  0  0  0  0  2  0  0
    1.5754   -0.5224    0.9500 C   0  0  0  0  0  0  0  0  0  3  0  0
    1.0698    0.5553    1.6145 O   0  0  0  0  0  0  0  0  0  4  0  0
   -0.9054    0.5792   -0.7900 C   0  0  0  0  0  0  0  0  0  5  0  0
   -0.2623    1.5924   -0.5408 O   0  0  0  0  0  0  0  0  0  6  0  0
   -1.6919   -0.1737    0.2322 C   0  0  0  0  0  0  0  0  0  7  0  0
   -2.9057   -0.6973   -0.2912 O   0  0  0  0  0  0  0  0  0  8  0  0
    2.3674   -1.5921   -0.6519 H   0  0  0  0  0  0  0  0  0  9  0  0
    1.6509   -1.3895    1.5955 H   0  0  0  0  0  0  0  0  0 10  0  0
    1.7181    1.1422   -1.0294 H   0  0  0  0  0  0  0  0  0 11  0  0
   -0.9552    0.1572   -1.8094 H   0  0  0  0  0  0  0  0  0 12  0  0
    0.7169    1.2026    0.9774 H   0  0  0  0  0  0  0  0  0 13  0  0
   -1.8275    0.4357    1.1292 H   0  0  0  0  0  0  0  0  0 14  0  0
   -1.0781   -1.0367    0.5164 H   0  0  0  0  0  0  0  0  0 15  0  0
   -3.5229    0.0331   -0.4036 H   0  0  0  0  0  0  0  0  0 16  0  0
  2  1  1  0
  3  2  2  0
  4  3  1  0
  6  5  2  0
  7  5  1  0
  8  7  1  0
  9  2  1  0
 10  3  1  0
 11  1  1  0
 12  5  1  0
 13  4  1  0
 14  7  1  0
 15  7  1  0
 16  8  1  0
M  END
