
     RDKit          3D

 16 14  0  0  0  0  0  0  0  0999 V2000
    2.1693   -1.3620   -0.4378 O   0  0  0  0  0  0  0  0  0  1  0  0
    1.7253   -0.0836   -0.3599 C   0  0  0  0  0  0  0  0  0  2  0  0
    1.3143    0.4843    0.7860 C   0  0  0  0  0  0  0  0  0  3  0  0
    0.8611    1.7678    0.9038 O   0  0  0  0  0  0  0  0  0  4  0  0
   -0.8497   -1.0780    0.3436 C   0  0  0  0  0  0  0  0  0  5  0  0
   -0.4599   -1.9124   -0.4537 O   0  0  0  0  0  0  0  0  0  6  0  0
   -1.6340    0.1668   -0.0252 C   0  0  0  0  0  0  0  0  0  7  0  0
   -1.0048    0.8788   -1.0885 O   0  0  0  0  0  0  0  0  0  8  0  0
    1.6784    0.4606   -1.3000 H   0  0  0  0  0  0  0  0  0  9  0  0
    1.4372   -0.0223    1.7369 H   0  0  0  0  0  0  0  0  0 10  0  0
    0.4426    1.9974    0.0580 H   0  0  0  0  0  0  0  0  0 11  0  0
   -0.8487   -1.2819    1.4329 H   0  0  0  0  0  0  0  0  0 12  0  0
    1.3684   -1.9113   -0.5754 H   0  0  0  0  0  0  0  0  0 13  0  0
   -1.7497    0.7939    0.8635 H   0  0  0  0  0  0  0  0  0 14  0  0
   -2.6286   -0.1971   -0.3166 H   0  0  0  0  0  0  0  0  0 15  0  0
   -1.6883    1.3321   -1.5923 H   0  0  0  0  0  0  0  0  0 16  0  0
  2  1  1  0
  3  2  2  0
  4  3  1  0
  6  5  2  0
  7  5  1  0
  8  7  1  0
  9  2  1  0
 10  3  1  0
 11  4  1  0
 12  5  1  0
 13  1  1  0
 14  7  1  0
 15  7  1  0
 16  8  1  0
M  END
