
     RDKit          3D

 16 15  0  0  0  0  0  0  0  0999 V2000
    2.9119    0.5144   -0.7521 O   0  0  0  0  0  0  0  0  0  1  0  0
    2.0010   -0.2814   -0.8274 C   0  0  0  0  0  0  0  0  0  2  0  0
    0.9275   -0.3483    0.2304 C   0  0  1  0  0  0  0  0  0  3  0  0
    1.1719    0.6286    1.2162 O   0  0  0  0  0  0  0  0  0  4  0  0
   -0.4686   -0.1202   -0.3801 C   0  0  2  0  0  0  0  0  0  5  0  0
   -0.5902    1.2284   -0.8088 O   0  0  0  0  0  0  0  0  0  6  0  0
   -1.5708   -0.4536    0.6171 C   0  0  0  0  0  0  0  0  0  7  0  0
   -2.8486   -0.1567    0.0957 O   0  0  0  0  0  0  0  0  0  8  0  0
    1.9266   -0.9857   -1.6771 H   0  0  0  0  0  0  0  0  0  9  0  0
    0.9570   -1.3554    0.6750 H   0  0  0  0  0  0  0  0  0 10  0  0
    2.0305    1.0232    0.9778 H   0  0  0  0  0  0  0  0  0 11  0  0
   -0.5917   -0.7314   -1.2758 H   0  0  0  0  0  0  0  0  0 12  0  0
   -0.2388    1.7715   -0.0864 H   0  0  0  0  0  0  0  0  0 13  0  0
   -1.3727    0.0947    1.5450 H   0  0  0  0  0  0  0  0  0 14  0  0
   -1.5596   -1.5193    0.8492 H   0  0  0  0  0  0  0  0  0 15  0  0
   -2.7805    0.7240   -0.2991 H   0  0  0  0  0  0  0  0  0 16  0  0
  2  1  2  0
  3  2  1  0
  4  3  1  0
  5  3  1  0
  6  5  1  0
  7  5  1  0
  8  7  1  0
  9  2  1  0
  3 10  1  1
 11  4  1  0
  5 12  1  6
 13  6  1  0
 14  7  1  0
 15  7  1  0
 16  8  1  0
M  END
