
     RDKit          3D

 16 15  0  0  0  0  0  0  0  0999 V2000
    1.8843   -1.0503   -1.1670 O   0  0  0  0  0  0  0  0  0  1  0  0
    1.6727   -0.0114   -0.5769 C   0  0  0  0  0  0  0  0  0  2  0  0
    0.8974    0.0919    0.7182 C   0  0  1  0  0  0  0  0  0  3  0  0
    0.7380    1.4456    1.1037 O   0  0  0  0  0  0  0  0  0  4  0  0
   -0.4461   -0.6681    0.6697 C   0  0  2  0  0  0  0  0  0  5  0  0
   -0.3050   -1.9857    0.1926 O   0  0  0  0  0  0  0  0  0  6  0  0
   -1.4810    0.1385   -0.1094 C   0  0  0  0  0  0  0  0  0  7  0  0
   -0.8293    0.7383   -1.2387 O   0  0  0  0  0  0  0  0  0  8  0  0
    2.0708    0.9488   -0.9504 H   0  0  0  0  0  0  0  0  0  9  0  0
    1.5183   -0.3748    1.4869 H   0  0  0  0  0  0  0  0  0 10  0  0
    0.2684    1.8804    0.3765 H   0  0  0  0  0  0  0  0  0 11  0  0
   -0.8083   -0.7426    1.6963 H   0  0  0  0  0  0  0  0  0 12  0  0
    0.3751   -1.9893   -0.5040 H   0  0  0  0  0  0  0  0  0 13  0  0
   -1.9054    0.9113    0.5390 H   0  0  0  0  0  0  0  0  0 14  0  0
   -2.2843   -0.5280   -0.4265 H   0  0  0  0  0  0  0  0  0 15  0  0
   -1.4987    1.1624   -1.7853 H   0  0  0  0  0  0  0  0  0 16  0  0
  2  1  2  0
  3  2  1  0
  4  3  1  0
  5  3  1  0
  6  5  1  0
  7  5  1  0
  8  7  1  0
  9  2  1  0
  3 10  1  1
 11  4  1  0
  5 12  1  1
 13  6  1  0
 14  7  1  0
 15  7  1  0
 16  8  1  0
M  END
