
     RDKit          3D

 16 14  0  0  0  0  0  0  0  0999 V2000
   -0.3157    1.2254   -0.8120 O   0  0  0  0  0  0  0  0  0  1  0  0
   -0.5904    0.0132   -1.4640 C   0  0  0  0  0  0  0  0  0  2  0  0
    0.6910   -0.7259   -1.8241 C   0  0  0  0  0  0  0  0  0  3  0  0
    1.5993   -0.7754   -0.6918 O   0  0  0  0  0  0  0  0  0  4  0  0
   -1.9871    0.4125    2.9202 O   0  0  0  0  0  1  0  0  0  5  0  0
   -0.8676    0.8577    2.7157 C   0  0  0  0  0  0  0  0  0  6  0  0
   -0.1729    0.3703    1.5498 C   0  0  0  0  0  0  0  0  0  7  0  0
    0.4039   -0.7688    1.6233 O   0  0  0  0  0  3  0  0  0  8  0  0
   -1.1596    0.2148   -2.3772 H   0  0  0  0  0  0  0  0  0  9  0  0
    0.5025   -1.7594   -2.1065 H   0  0  0  0  0  0  0  0  0 10  0  0
    1.2055   -0.2194   -2.6400 H   0  0  0  0  0  0  0  0  0 11  0  0
    1.8140    0.1531   -0.5218 H   0  0  0  0  0  0  0  0  0 12  0  0
   -0.3972    1.6336    3.3484 H   0  0  0  0  0  0  0  0  0 13  0  0
   -1.2131   -0.6527   -0.8478 H   0  0  0  0  0  0  0  0  0 14  0  0
   -0.3401    1.0055    0.2423 H   0  0  0  0  0  0  0  0  0 15  0  0
    0.8404   -0.9876    0.7227 H   0  0  0  0  0  0  0  0  0 16  0  0
  2  1  1  0
  3  2  1  0
  4  3  1  0
  6  5  1  0
  7  6  2  0
  8  7  2  0
  9  2  1  0
 10  3  1  0
 11  3  1  0
 12  4  1  0
 13  6  1  0
 14  2  1  0
 15  1  1  0
 16  8  1  0
M  CHG  2   5  -1   8   1
M  END
