
     RDKit          3D

 16 14  0  0  0  0  0  0  0  0999 V2000
    0.5634    1.3498   -2.9278 O   0  0  0  0  0  0  0  0  0  1  0  0
    0.1490    0.2116   -2.9613 C   0  0  0  0  0  0  0  0  0  2  0  0
    0.5354   -0.8000   -1.9196 C   0  0  0  0  0  0  0  0  0  3  0  0
    1.3931   -0.2526   -0.9480 O   0  0  0  0  0  0  0  0  0  4  0  0
   -2.2395    0.7485    3.4089 O   0  0  0  0  0  0  0  0  0  5  0  0
   -1.1502    0.2843    3.1726 C   0  0  0  0  0  0  0  0  0  6  0  0
   -0.4991    0.3692    1.8213 C   0  0  0  0  0  0  0  0  0  7  0  0
    0.6498   -0.4475    1.8048 O   0  0  0  0  0  0  0  0  0  8  0  0
   -0.5288   -0.1381   -3.7622 H   0  0  0  0  0  0  0  0  0  9  0  0
   -0.3839   -1.1873   -1.4588 H   0  0  0  0  0  0  0  0  0 10  0  0
    1.0115   -1.6551   -2.4184 H   0  0  0  0  0  0  0  0  0 11  0  0
    1.5456    0.6693   -1.2206 H   0  0  0  0  0  0  0  0  0 12  0  0
   -0.5455   -0.2321    3.9482 H   0  0  0  0  0  0  0  0  0 13  0  0
   -1.2522    0.0836    1.0751 H   0  0  0  0  0  0  0  0  0 14  0  0
   -0.2689    1.4313    1.6467 H   0  0  0  0  0  0  0  0  0 15  0  0
    1.0076   -0.4320    0.9020 H   0  0  0  0  0  0  0  0  0 16  0  0
  2  1  2  0
  3  2  1  0
  4  3  1  0
  6  5  2  0
  7  6  1  0
  8  7  1  0
  9  2  1  0
 10  3  1  0
 11  3  1  0
 12  4  1  0
 13  6  1  0
 14  7  1  0
 15  7  1  0
 16  8  1  0
M  END
