
     RDKit          3D

 12 11  0  0  0  0  0  0  0  0999 V2000
    1.0942    1.4077   -1.7004 O   0  0  0  0  0  0  0  0  0  1  0  0
    1.4039    0.8070   -0.6988 C   0  0  0  0  0  0  0  0  0  2  0  0
    0.5348   -0.2489   -0.0469 C   0  0  1  0  0  0  0  0  0  3  0  0
    0.9058   -0.3528    1.3162 O   0  0  0  0  0  0  0  0  0  4  0  0
   -0.9436    0.0509   -0.2009 C   0  0  0  0  0  0  0  0  0  5  0  0
   -1.6147   -0.9792    0.5318 O   0  0  0  0  0  0  0  0  0  6  0  0
    2.3753    0.9746   -0.1900 H   0  0  0  0  0  0  0  0  0  7  0  0
    0.7467   -1.1939   -0.5740 H   0  0  0  0  0  0  0  0  0  8  0  0
   -1.1584    1.0355    0.2221 H   0  0  0  0  0  0  0  0  0  9  0  0
    0.1976   -0.8622    1.7351 H   0  0  0  0  0  0  0  0  0 10  0  0
   -1.2205    0.0538   -1.2563 H   0  0  0  0  0  0  0  0  0 11  0  0
   -2.5345   -0.7244    0.6506 H   0  0  0  0  0  0  0  0  0 12  0  0
  2  1  2  0
  3  2  1  0
  4  3  1  0
  5  3  1  0
  6  5  1  0
  7  2  1  0
  3  8  1  6
  9  5  1  0
 10  4  1  0
 11  5  1  0
 12  6  1  0
M  END
