
     RDKit          3D

 12 11  0  0  0  0  0  0  0  0999 V2000
    1.1813    1.3601   -1.6763 O   0  0  0  0  0  0  0  0  0  1  0  0
    1.4523    0.7589   -0.6639 C   0  0  0  0  0  0  0  0  0  2  0  0
    0.5371   -0.2614   -0.0185 C   0  0  1  0  0  0  0  0  0  3  0  0
    0.8685   -0.3502    1.3560 O   0  0  0  0  0  0  0  0  0  4  0  0
   -0.9277    0.0747   -0.2184 C   0  0  0  0  0  0  0  0  0  5  0  0
   -1.6459   -0.9232    0.5142 O   0  0  0  0  0  0  0  0  0  6  0  0
    2.4192    0.8989   -0.1389 H   0  0  0  0  0  0  0  0  0  7  0  0
    0.7381   -1.2213   -0.5226 H   0  0  0  0  0  0  0  0  0  8  0  0
   -1.1266    1.0725    0.1808 H   0  0  0  0  0  0  0  0  0  9  0  0
    0.1353   -0.8320    1.7644 H   0  0  0  0  0  0  0  0  0 10  0  0
   -1.1759    0.0654   -1.2809 H   0  0  0  0  0  0  0  0  0 11  0  0
   -2.5623   -0.6440    0.5992 H   0  0  0  0  0  0  0  0  0 12  0  0
  2  1  2  0
  3  2  1  0
  4  3  1  0
  5  3  1  0
  6  5  1  0
  7  2  1  0
  3  8  1  6
  9  5  1  0
 10  4  1  0
 11  5  1  0
 12  6  1  0
M  END
