
     RDKit          3D

 12 11  0  0  0  0  0  0  0  0999 V2000
   -2.0602    0.1142   -1.3851 O   0  0  0  0  0  0  0  0  0  1  0  0
   -0.7797    0.4042   -0.9003 C   0  0  0  0  0  0  0  0  0  2  0  0
   -0.3988   -0.4547    0.2649 C   0  0  0  0  0  0  0  0  0  3  0  0
   -1.1670   -1.2955    0.6968 O   0  0  0  0  0  0  0  0  0  4  0  0
    0.9627   -0.2478    0.8867 C   0  0  0  0  0  0  0  0  0  5  0  0
    1.6528    0.7864    0.2034 O   0  0  0  0  0  0  0  0  0  6  0  0
   -0.6937    1.4526   -0.5901 H   0  0  0  0  0  0  0  0  0  7  0  0
   -0.0164    0.2783   -1.6775 H   0  0  0  0  0  0  0  0  0  8  0  0
   -2.3998   -0.6015   -0.8221 H   0  0  0  0  0  0  0  0  0  9  0  0
    1.4849   -1.2088    0.8400 H   0  0  0  0  0  0  0  0  0 10  0  0
    0.8001   -0.0219    1.9455 H   0  0  0  0  0  0  0  0  0 11  0  0
    2.5155    0.9004    0.6143 H   0  0  0  0  0  0  0  0  0 12  0  0
  2  1  1  0
  3  2  1  0
  4  3  2  0
  5  3  1  0
  6  5  1  0
  7  2  1  0
  8  2  1  0
  9  1  1  0
 10  5  1  0
 11  5  1  0
 12  6  1  0
M  END
