
     RDKit          3D

 12 10  0  0  0  0  0  0  0  0999 V2000
    1.7103    0.5123    0.2269 O   0  0  0  0  0  0  0  0  0  1  0  0
    1.4475    0.0368   -0.8769 C   0  0  0  0  0  0  0  0  0  2  0  0
    0.1813   -0.4935   -1.3118 C   0  0  0  0  0  0  0  0  0  3  0  0
   -0.0496    1.0561    2.3498 O   0  0  0  0  0  0  0  0  0  4  0  0
   -0.8981   -0.5204   -0.5070 C   0  0  0  0  0  0  0  0  0  5  0  0
   -2.0640   -1.0234   -0.9387 O   0  0  0  0  0  0  0  0  0  6  0  0
    2.2475   -0.0026   -1.6387 H   0  0  0  0  0  0  0  0  0  7  0  0
    0.1036   -0.8822   -2.3187 H   0  0  0  0  0  0  0  0  0  8  0  0
    0.3375    1.4644    3.1298 H   0  0  0  0  0  0  0  0  0  9  0  0
    0.6960    0.9596    1.7226 H   0  0  0  0  0  0  0  0  0 10  0  0
   -0.8731   -0.1425    0.5120 H   0  0  0  0  0  0  0  0  0 11  0  0
   -2.7322   -0.9631   -0.2447 H   0  0  0  0  0  0  0  0  0 12  0  0
  2  1  2  0
  3  2  1  0
  5  3  2  0
  6  5  1  0
  7  2  1  0
  8  3  1  0
  9  4  1  0
 10  4  1  0
 11  5  1  0
 12  6  1  0
M  END
