
     RDKit          3D

 12 10  0  0  0  0  0  0  0  0999 V2000
   -1.6766    0.5654    0.2961 O   0  0  0  0  0  0  0  0  0  1  0  0
   -0.9248    1.4043   -0.1981 C   0  0  0  0  0  0  0  0  0  2  0  0
    0.4614    1.2272   -0.5458 C   0  0  0  0  0  0  0  0  0  3  0  0
   -1.1087   -2.0980    0.9899 O   0  0  0  0  0  0  0  0  0  4  0  0
    1.1046    0.0595   -0.3551 C   0  0  0  0  0  0  0  0  0  5  0  0
    2.3968   -0.0746   -0.6882 O   0  0  0  0  0  0  0  0  0  6  0  0
   -1.3256    2.4125   -0.4102 H   0  0  0  0  0  0  0  0  0  7  0  0
    0.9963    2.0647   -0.9740 H   0  0  0  0  0  0  0  0  0  8  0  0
   -1.4871   -1.2121    0.8144 H   0  0  0  0  0  0  0  0  0  9  0  0
   -1.8354   -2.6059    1.3628 H   0  0  0  0  0  0  0  0  0 10  0  0
    0.6136   -0.8123    0.0700 H   0  0  0  0  0  0  0  0  0 11  0  0
    2.7030   -0.9680   -0.4884 H   0  0  0  0  0  0  0  0  0 12  0  0
  2  1  2  0
  3  2  1  0
  5  3  2  0
  6  5  1  0
  7  2  1  0
  8  3  1  0
  9  4  1  0
 10  4  1  0
 11  5  1  0
 12  6  1  0
M  END
