
     RDKit          3D

 12 10  0  0  0  0  0  0  0  0999 V2000
    1.5898    0.8169    0.1266 O   0  0  0  0  0  0  0  0  0  1  0  0
    1.3675    0.2771   -0.9564 C   0  0  0  0  0  0  0  0  0  2  0  0
    0.1980   -0.4795   -1.3220 C   0  0  0  0  0  0  0  0  0  3  0  0
   -0.1484    1.0913    2.3218 O   0  0  0  0  0  0  0  0  0  4  0  0
   -0.8201   -0.6812   -0.4642 C   0  0  0  0  0  0  0  0  0  5  0  0
   -1.8977   -1.3901   -0.8315 O   0  0  0  0  0  0  0  0  0  6  0  0
    2.1266    0.3635   -1.7553 H   0  0  0  0  0  0  0  0  0  7  0  0
    0.1439   -0.8956   -2.3194 H   0  0  0  0  0  0  0  0  0  8  0  0
    0.5751    1.1142    1.6626 H   0  0  0  0  0  0  0  0  0  9  0  0
    0.2123    1.5314    3.0974 H   0  0  0  0  0  0  0  0  0 10  0  0
   -0.8140   -0.2853    0.5481 H   0  0  0  0  0  0  0  0  0 11  0  0
   -2.5327   -1.4338   -0.1057 H   0  0  0  0  0  0  0  0  0 12  0  0
  2  1  2  0
  3  2  1  0
  5  3  2  0
  6  5  1  0
  7  2  1  0
  8  3  1  0
  9  4  1  0
 10  4  1  0
 11  5  1  0
 12  6  1  0
M  END
