
     RDKit          3D

 12 11  0  0  0  0  0  0  0  0999 V2000
    0.4342    0.6923   -1.2289 C   0  0  0  0  0  0  0  0  0  1  0  0
   -0.2596    0.1353   -2.0522 O   0  0  0  0  0  0  0  0  0  2  0  0
    0.5318    1.2748    1.0830 O   0  0  0  0  0  0  0  0  0  3  0  0
    0.6881    0.1876    0.1788 C   0  0  1  0  0  0  0  0  0  4  0  0
   -0.2098   -0.9852    0.5326 C   0  0  0  0  0  0  0  0  0  5  0  0
   -1.5745   -0.5735    0.5663 O   0  0  0  0  0  0  0  0  0  6  0  0
    1.7430   -0.1078    0.2354 H   0  0  0  0  0  0  0  0  0  7  0  0
    0.9324    1.6557   -1.4535 H   0  0  0  0  0  0  0  0  0  8  0  0
   -0.4191    1.3263    1.2632 H   0  0  0  0  0  0  0  0  0  9  0  0
   -0.0581   -1.8047   -0.1722 H   0  0  0  0  0  0  0  0  0 10  0  0
    0.0337   -1.3379    1.5329 H   0  0  0  0  0  0  0  0  0 11  0  0
   -1.8510   -0.4392   -0.3510 H   0  0  0  0  0  0  0  0  0 12  0  0
  2  1  2  0
  4  3  1  0
  4  1  1  0
  5  4  1  0
  6  5  1  0
  4  7  1  6
  8  1  1  0
  9  3  1  0
 10  5  1  0
 11  5  1  0
 12  6  1  0
M  END
