
     RDKit          3D

 12 10  0  0  0  0  0  0  0  0999 V2000
    0.6706    1.0429   -1.8415 C   0  0  0  0  0  0  0  0  0  1  0  0
    0.2119   -0.0413   -2.1395 O   0  0  0  0  0  0  0  0  0  2  0  0
    0.4631    1.1580    0.7301 O   0  0  0  0  0  0  0  0  0  3  0  0
    0.2875    0.1498    1.3771 C   0  0  0  0  0  0  0  0  0  4  0  0
   -0.6172   -0.9925    1.0078 C   0  0  0  0  0  0  0  0  0  5  0  0
   -1.5166   -0.7797   -0.0336 O   0  0  0  0  0  0  0  0  0  6  0  0
    1.7453    1.1918   -1.6364 H   0  0  0  0  0  0  0  0  0  7  0  0
    0.0452    1.9519   -1.8202 H   0  0  0  0  0  0  0  0  0  8  0  0
    0.8376    0.0081    2.3354 H   0  0  0  0  0  0  0  0  0  9  0  0
    0.0692   -1.8406    0.8265 H   0  0  0  0  0  0  0  0  0 10  0  0
   -1.1785   -1.2654    1.9081 H   0  0  0  0  0  0  0  0  0 11  0  0
   -1.0091   -0.6065   -0.8484 H   0  0  0  0  0  0  0  0  0 12  0  0
  2  1  2  0
  4  3  2  0
  5  4  1  0
  6  5  1  0
  7  1  1  0
  8  1  1  0
  9  4  1  0
 10  5  1  0
 11  5  1  0
 12  6  1  0
M  END
