
     RDKit          3D

 12 10  0  0  0  0  0  0  0  0999 V2000
   -0.2804   -0.1725   -1.5525 C   0  0  0  0  0  0  0  0  0  1  0  0
    0.4940   -1.2817   -1.7118 C   0  0  0  0  0  0  0  0  0  2  0  0
    0.5014    0.3491    0.0814 O   0  0  0  0  0  1  0  0  0  3  0  0
    0.6906    1.4129    1.3480 O   0  0  0  0  0  0  0  0  0  4  0  0
   -0.0979    1.0942    2.2390 C   0  0  0  0  0  0  0  0  0  5  0  0
   -0.8977    0.0889    2.1464 O   0  0  0  0  0  3  0  0  0  6  0  0
    0.0020    0.7334   -2.0647 H   0  0  0  0  0  0  0  0  0  7  0  0
   -1.3170   -0.2817   -1.2653 H   0  0  0  0  0  0  0  0  0  8  0  0
    0.2046   -2.2372   -1.2874 H   0  0  0  0  0  0  0  0  0  9  0  0
    1.4716   -1.2174   -2.1741 H   0  0  0  0  0  0  0  0  0 10  0  0
   -0.6381   -0.2627    1.1983 H   0  0  0  0  0  0  0  0  0 11  0  0
   -0.1412    1.6769    3.1710 H   0  0  0  0  0  0  0  0  0 12  0  0
  2  1  2  0
  4  3  1  0
  5  4  1  0
  6  5  2  0
  7  1  1  0
  8  1  1  0
  9  2  1  0
 10  2  1  0
 11  6  1  0
 12  5  1  0
M  CHG  2   3  -1   6   1
M  END
