
     RDKit          3D

 12 10  0  0  0  0  0  0  0  0999 V2000
    0.0015   -0.8266   -1.6972 C   0  0  0  0  0  0  0  0  0  1  0  0
   -1.2569   -1.0626   -1.3561 C   0  0  0  0  0  0  0  0  0  2  0  0
   -0.8614    1.0931    0.9726 O   0  0  0  0  0  0  0  0  0  3  0  0
    0.0638    1.5989    1.9604 O   0  0  0  0  0  0  0  0  0  4  0  0
    1.2644    1.0029    1.8936 C   0  0  0  0  0  0  0  0  0  5  0  0
    1.5804    0.1409    1.1126 O   0  0  0  0  0  0  0  0  0  6  0  0
    0.8102   -1.4765   -1.3926 H   0  0  0  0  0  0  0  0  0  7  0  0
    0.2744    0.0321   -2.2948 H   0  0  0  0  0  0  0  0  0  8  0  0
   -2.0654   -0.4229   -1.6840 H   0  0  0  0  0  0  0  0  0  9  0  0
   -1.5294   -1.8971   -0.7242 H   0  0  0  0  0  0  0  0  0 10  0  0
   -0.3001    0.4396    0.4913 H   0  0  0  0  0  0  0  0  0 11  0  0
    1.8887    1.4493    2.6768 H   0  0  0  0  0  0  0  0  0 12  0  0
  2  1  2  0
  4  3  1  0
  5  4  1  0
  6  5  2  0
  7  1  1  0
  8  1  1  0
  9  2  1  0
 10  2  1  0
 11  3  1  0
 12  5  1  0
M  END
