
     RDKit          3D

 12 10  0  0  0  0  0  0  0  0999 V2000
   -0.0334   -0.4798   -2.0467 C   0  0  0  0  0  0  0  0  0  1  0  0
    0.2198   -1.7805   -2.0787 C   0  0  0  0  0  0  0  0  0  2  0  0
   -0.2691    1.5993    0.5468 O   0  0  0  0  0  0  0  0  0  3  0  0
   -0.2718    2.0774    1.9131 O   0  0  0  0  0  0  0  0  0  4  0  0
   -0.0349    1.0901    2.7914 C   0  0  0  0  0  0  0  0  0  5  0  0
    0.1611   -0.0652    2.5081 O   0  0  0  0  0  0  0  0  0  6  0  0
    0.7572    0.2567   -2.0940 H   0  0  0  0  0  0  0  0  0  7  0  0
   -1.0424   -0.0963   -1.9780 H   0  0  0  0  0  0  0  0  0  8  0  0
   -0.5710   -2.5188   -2.0310 H   0  0  0  0  0  0  0  0  0  9  0  0
    1.2296   -2.1655   -2.1470 H   0  0  0  0  0  0  0  0  0 10  0  0
   -0.0816    0.6445    0.6960 H   0  0  0  0  0  0  0  0  0 11  0  0
   -0.0553    1.5358    3.7918 H   0  0  0  0  0  0  0  0  0 12  0  0
  2  1  2  0
  4  3  1  0
  5  4  1  0
  6  5  2  0
  7  1  1  0
  8  1  1  0
  9  2  1  0
 10  2  1  0
 11  3  1  0
 12  5  1  0
M  END
