
     RDKit          3D

 12 11  0  0  0  0  0  0  0  0999 V2000
   -0.2230   -0.1991   -1.2650 C   0  0  0  0  0  0  0  0  0  1  0  0
   -1.2805   -1.1912   -1.3954 C   0  0  0  0  0  0  0  0  0  2  0  0
   -0.8107   -0.8054   -0.0973 O   0  0  0  0  0  0  0  0  0  3  0  0
    1.7049    1.5862    0.7461 O   0  0  0  0  0  0  0  0  0  4  0  0
    1.3806    1.2502    1.8618 C   0  0  0  0  0  0  0  0  0  5  0  0
    0.4478    0.3510    2.1951 O   0  0  0  0  0  0  0  0  0  6  0  0
    0.8084   -0.4724   -1.4544 H   0  0  0  0  0  0  0  0  0  7  0  0
   -0.4435    0.8535   -1.3963 H   0  0  0  0  0  0  0  0  0  8  0  0
   -2.2907   -0.8749   -1.6291 H   0  0  0  0  0  0  0  0  0  9  0  0
   -1.0352   -2.2062   -1.6876 H   0  0  0  0  0  0  0  0  0 10  0  0
    0.0403   -0.0221    1.3857 H   0  0  0  0  0  0  0  0  0 11  0  0
    1.8315    1.6590    2.7781 H   0  0  0  0  0  0  0  0  0 12  0  0
  2  1  1  0
  3  2  1  0
  3  1  1  0
  5  4  2  0
  6  5  1  0
  7  1  1  0
  8  1  1  0
  9  2  1  0
 10  2  1  0
 11  6  1  0
 12  5  1  0
M  END
