
     RDKit          3D

 12 11  0  0  0  0  0  0  0  0999 V2000
    1.0602   -0.8607   -0.8988 C   0  0  0  0  0  0  0  0  0  1  0  0
   -0.0578   -0.2669   -1.6193 C   0  0  0  0  0  0  0  0  0  2  0  0
   -0.2931   -1.2232   -0.5698 O   0  0  0  0  0  0  0  0  0  3  0  0
    0.1956    1.7242    1.1006 O   0  0  0  0  0  0  0  0  0  4  0  0
   -0.5784    1.2301    1.8898 C   0  0  0  0  0  0  0  0  0  5  0  0
   -1.1588    0.0305    1.8074 O   0  0  0  0  0  0  0  0  0  6  0  0
    1.5726   -0.2692   -0.1523 H   0  0  0  0  0  0  0  0  0  7  0  0
    1.6384   -1.6549   -1.3552 H   0  0  0  0  0  0  0  0  0  8  0  0
   -0.3115   -0.6191   -2.6116 H   0  0  0  0  0  0  0  0  0  9  0  0
   -0.3458    0.7498   -1.3886 H   0  0  0  0  0  0  0  0  0 10  0  0
   -0.8726   -0.4318    0.9840 H   0  0  0  0  0  0  0  0  0 11  0  0
   -0.9115    1.7318    2.8099 H   0  0  0  0  0  0  0  0  0 12  0  0
  2  1  1  0
  3  2  1  0
  3  1  1  0
  5  4  2  0
  6  5  1  0
  7  1  1  0
  8  1  1  0
  9  2  1  0
 10  2  1  0
 11  6  1  0
 12  5  1  0
M  END
