
     RDKit          3D

 12 10  0  0  0  0  0  0  0  0999 V2000
    0.5685    0.1202   -1.7964 C   0  0  0  0  0  0  0  0  0  1  0  0
   -0.0034   -1.0741   -1.8412 C   0  0  0  0  0  0  0  0  0  2  0  0
    0.0169   -1.0211    1.3573 O   0  0  0  0  0  0  0  0  0  3  0  0
   -0.1806   -0.1831    2.5176 O   0  0  0  0  0  0  0  0  0  4  0  0
   -0.4118    1.0985    2.1934 C   0  0  0  0  0  0  0  0  0  5  0  0
   -0.4566    1.5449    1.0747 O   0  0  0  0  0  0  0  0  0  6  0  0
    0.0028    1.0327   -1.9249 H   0  0  0  0  0  0  0  0  0  7  0  0
    1.6300    0.2332   -1.6253 H   0  0  0  0  0  0  0  0  0  8  0  0
    0.5710   -1.9849   -1.7359 H   0  0  0  0  0  0  0  0  0  9  0  0
   -1.0708   -1.1905   -1.9718 H   0  0  0  0  0  0  0  0  0 10  0  0
   -0.0549   -0.3645    0.6241 H   0  0  0  0  0  0  0  0  0 11  0  0
   -0.5482    1.6481    3.1325 H   0  0  0  0  0  0  0  0  0 12  0  0
  2  1  2  0
  4  3  1  0
  5  4  1  0
  6  5  2  0
  7  1  1  0
  8  1  1  0
  9  2  1  0
 10  2  1  0
 11  3  1  0
 12  5  1  0
M  END
