
     RDKit          3D

 16 16  0  0  0  0  0  0  0  0999 V2000
   -0.3828    0.7002   -0.1910 O   0  0  0  0  0  0  0  0  0  1  0  0
    0.1488    0.9441   -1.4462 C   0  0  2  0  0  0  0  0  0  2  0  0
    0.6790   -0.0816   -2.3323 C   0  0  0  0  0  0  0  0  0  3  0  0
    1.5465    0.8479   -1.6362 O   0  0  0  0  0  0  0  0  0  4  0  0
   -0.0654   -0.0394    2.0185 C   0  0  0  0  0  0  0  0  0  5  0  0
   -1.4518    0.0208    2.3372 O   0  0  0  0  0  0  0  0  0  6  0  0
    0.1432   -0.4005    0.5613 C   0  0  1  0  0  0  0  0  0  7  0  0
   -0.4916   -1.5969    0.2216 O   0  0  0  0  0  0  0  0  0  8  0  0
    0.7324   -1.1032   -1.9825 H   0  0  0  0  0  0  0  0  0  9  0  0
    0.6236    0.0571   -3.4070 H   0  0  0  0  0  0  0  0  0 10  0  0
    0.3700   -0.8164    2.6450 H   0  0  0  0  0  0  0  0  0 11  0  0
    0.4411    0.9069    2.2247 H   0  0  0  0  0  0  0  0  0 12  0  0
   -1.8241    0.7460    1.8201 H   0  0  0  0  0  0  0  0  0 13  0  0
   -0.3103    1.8464   -1.8386 H   0  0  0  0  0  0  0  0  0 14  0  0
    1.2020   -0.5209    0.3368 H   0  0  0  0  0  0  0  0  0 15  0  0
   -1.3528   -1.5844    0.6667 H   0  0  0  0  0  0  0  0  0 16  0  0
  2  1  1  0
  3  2  1  0
  4  3  1  0
  4  2  1  0
  6  5  1  0
  7  5  1  0
  7  1  1  0
  8  7  1  0
  9  3  1  0
 10  3  1  0
 11  5  1  0
 12  5  1  0
 13  6  1  0
  2 14  1  6
  7 15  1  1
 16  8  1  0
M  END
