
     RDKit          3D

 16 15  0  0  0  0  0  0  0  0999 V2000
    0.8171   -0.9031   -1.4612 O   0  0  0  0  0  0  0  0  0  1  0  0
   -0.4754   -0.5202   -1.2460 C   0  0  2  0  0  0  0  0  0  2  0  0
   -1.1903    0.1778   -2.3002 C   0  0  0  0  0  0  0  0  0  3  0  0
   -0.7364    0.8948   -1.1303 O   0  0  0  0  0  0  0  0  0  4  0  0
   -0.0862    0.4196    2.0294 C   0  0  0  0  0  0  0  0  0  5  0  0
    0.0623    1.6346    1.3967 O   0  0  0  0  0  0  0  0  0  6  0  0
    0.8196   -0.5452    1.8899 C   0  0  0  0  0  0  0  0  0  7  0  0
    1.9536   -0.3942    1.1326 O   0  0  0  0  0  0  0  0  0  8  0  0
   -0.6638    0.4279   -3.2132 H   0  0  0  0  0  0  0  0  0  9  0  0
   -2.2670    0.0849   -2.3796 H   0  0  0  0  0  0  0  0  0 10  0  0
   -0.2362    1.5524    0.4742 H   0  0  0  0  0  0  0  0  0 11  0  0
   -0.9435    0.3104    2.6871 H   0  0  0  0  0  0  0  0  0 12  0  0
    1.2526   -1.0096   -0.5960 H   0  0  0  0  0  0  0  0  0 13  0  0
   -1.0224   -1.1212   -0.5214 H   0  0  0  0  0  0  0  0  0 14  0  0
    0.7414   -1.5250    2.3365 H   0  0  0  0  0  0  0  0  0 15  0  0
    2.0087    0.5532    0.9206 H   0  0  0  0  0  0  0  0  0 16  0  0
  2  1  1  0
  3  2  1  0
  4  3  1  0
  4  2  1  0
  6  5  1  0
  7  5  2  0
  8  7  1  0
  9  3  1  0
 10  3  1  0
 11  6  1  0
 12  5  1  0
 13  1  1  0
  2 14  1  1
 15  7  1  0
 16  8  1  0
M  END
