
     RDKit          3D

 16 15  0  0  0  0  0  0  0  0999 V2000
   -1.3242    0.8483   -1.2291 O   0  0  0  0  0  0  0  0  0  1  0  0
   -0.8407    0.3126   -0.2407 C   0  0  0  0  0  0  0  0  0  2  0  0
   -1.6655   -0.6755    0.5440 C   0  0  0  0  0  0  0  0  0  3  0  0
   -2.9496   -0.8334    0.0130 O   0  0  0  0  0  0  0  0  0  4  0  0
    0.5751    0.6493    0.1692 C   0  0  2  0  0  0  0  0  0  5  0  0
    1.0810    1.7135   -0.6035 O   0  0  0  0  0  0  0  0  0  6  0  0
    1.4950   -0.5746    0.0204 C   0  0  0  0  0  0  0  0  0  7  0  0
    2.8106   -0.2779    0.4294 O   0  0  0  0  0  0  0  0  0  8  0  0
   -1.1343   -1.6361    0.5698 H   0  0  0  0  0  0  0  0  0  9  0  0
   -1.7174   -0.3389    1.5885 H   0  0  0  0  0  0  0  0  0 10  0  0
   -2.9853   -0.2570   -0.7705 H   0  0  0  0  0  0  0  0  0 11  0  0
    0.5899    0.9395    1.2274 H   0  0  0  0  0  0  0  0  0 12  0  0
    0.4052    1.9041   -1.2781 H   0  0  0  0  0  0  0  0  0 13  0  0
    1.4704   -0.9161   -1.0210 H   0  0  0  0  0  0  0  0  0 14  0  0
    1.1440   -1.3855    0.6582 H   0  0  0  0  0  0  0  0  0 15  0  0
    3.0991    0.4910   -0.0793 H   0  0  0  0  0  0  0  0  0 16  0  0
  2  1  2  0
  3  2  1  0
  4  3  1  0
  5  2  1  0
  6  5  1  0
  7  5  1  0
  8  7  1  0
  9  3  1  0
 10  3  1  0
 11  4  1  0
  5 12  1  1
 13  6  1  0
 14  7  1  0
 15  7  1  0
 16  8  1  0
M  END
