
     RDKit          3D

 16 15  0  0  0  0  0  0  0  0999 V2000
    1.1505    0.0286   -1.2539 O   0  0  0  0  0  0  0  0  0  1  0  0
    0.0850   -0.6536   -0.6129 C   0  0  2  0  0  0  0  0  0  2  0  0
   -1.2053   -0.0983   -1.1921 C   0  0  0  0  0  0  0  0  0  3  0  0
   -1.3076    1.3125   -1.0855 O   0  0  0  0  0  0  0  0  0  4  0  0
    0.0219    0.8614    1.4577 C   0  0  0  0  0  0  0  0  0  5  0  0
    0.9273    1.4374    2.0261 O   0  0  0  0  0  0  0  0  0  6  0  0
    0.2199   -0.5378    0.9192 C   0  0  2  0  0  0  0  0  0  7  0  0
    1.4944   -1.0100    1.2942 O   0  0  0  0  0  0  0  0  0  8  0  0
   -1.2671   -0.4157   -2.2383 H   0  0  0  0  0  0  0  0  0  9  0  0
   -2.0680   -0.5141   -0.6702 H   0  0  0  0  0  0  0  0  0 10  0  0
   -0.5319    1.6811   -1.5265 H   0  0  0  0  0  0  0  0  0 11  0  0
   -0.9678    1.3163    1.3381 H   0  0  0  0  0  0  0  0  0 12  0  0
    1.9618   -0.2686   -0.8198 H   0  0  0  0  0  0  0  0  0 13  0  0
    0.1318   -1.7267   -0.8458 H   0  0  0  0  0  0  0  0  0 14  0  0
   -0.5649   -1.1644    1.3727 H   0  0  0  0  0  0  0  0  0 15  0  0
    1.8857   -0.2850    1.8179 H   0  0  0  0  0  0  0  0  0 16  0  0
  2  1  1  0
  3  2  1  0
  4  3  1  0
  6  5  2  0
  7  5  1  0
  7  2  1  0
  8  7  1  0
  9  3  1  0
 10  3  1  0
 11  4  1  0
 12  5  1  0
 13  1  1  0
  2 14  1  1
  7 15  1  1
 16  8  1  0
M  END
