
     RDKit          3D

 16 14  0  0  0  0  0  0  0  0999 V2000
    0.2549    1.9325   -1.1303 O   0  0  0  0  0  0  0  0  0  1  0  0
   -0.1551    0.6609   -0.8857 C   0  0  0  0  0  0  0  0  0  2  0  0
   -1.0644    0.0595   -1.9225 C   0  0  0  0  0  0  0  0  0  3  0  0
   -2.4207    0.4841   -1.8070 O   0  0  0  0  0  0  0  0  0  4  0  0
    1.0676    0.5997    1.2469 C   0  0  0  0  0  0  0  0  0  5  0  0
    1.4185    0.0243    2.2729 O   0  0  0  0  0  0  0  0  0  6  0  0
    0.2099    0.0211    0.2450 C   0  0  0  0  0  0  0  0  0  7  0  0
    1.0165   -2.6999    2.7985 O   0  0  0  0  0  0  0  0  0  8  0  0
   -0.6716    0.2831   -2.9255 H   0  0  0  0  0  0  0  0  0  9  0  0
   -1.0807   -1.0195   -1.8054 H   0  0  0  0  0  0  0  0  0 10  0  0
   -2.4597    1.4458   -1.8753 H   0  0  0  0  0  0  0  0  0 11  0  0
    1.4206    1.6279    1.0587 H   0  0  0  0  0  0  0  0  0 12  0  0
   -0.0024    2.1875   -2.0254 H   0  0  0  0  0  0  0  0  0 13  0  0
    1.3961   -2.9173    3.6563 H   0  0  0  0  0  0  0  0  0 14  0  0
   -0.1607   -0.9819    0.3982 H   0  0  0  0  0  0  0  0  0 15  0  0
    1.1930   -1.7434    2.6877 H   0  0  0  0  0  0  0  0  0 16  0  0
  2  1  1  0
  3  2  1  0
  4  3  1  0
  6  5  2  0
  7  5  1  0
  7  2  2  0
  9  3  1  0
 10  3  1  0
 11  4  1  0
 12  5  1  0
 13  1  1  0
 14  8  1  0
 15  7  1  0
 16  8  1  0
M  END
