
     RDKit          3D

 14 14  0  0  0  0  0  0  0  0999 V2000
   -0.9660   -1.0698   -0.8419 C   0  0  0  0  0  0  0  0  0  1  0  0
   -0.1251    0.2036   -0.9184 C   0  0  0  0  0  0  0  0  0  2  0  0
   -0.6705   -1.4805    0.5723 C   0  0  0  0  0  0  0  0  0  3  0  0
   -0.1403   -0.5487    1.2723 N   0  0  0  0  0  0  0  0  0  4  0  0
   -0.0254    0.5930    0.4994 N   0  0  0  0  0  0  0  0  0  5  0  0
    1.0836    1.4424    0.8691 C   0  0  0  0  0  0  0  0  0  6  0  0
   -2.0304   -0.8583   -0.9649 H   0  0  0  0  0  0  0  0  0  7  0  0
   -0.6892   -1.8165   -1.5841 H   0  0  0  0  0  0  0  0  0  8  0  0
    0.8717   -0.0081   -1.3319 H   0  0  0  0  0  0  0  0  0  9  0  0
   -0.5863    0.9932   -1.5059 H   0  0  0  0  0  0  0  0  0 10  0  0
   -0.8966   -2.4344    1.0227 H   0  0  0  0  0  0  0  0  0 11  0  0
    2.0618    1.0124    0.6107 H   0  0  0  0  0  0  0  0  0 12  0  0
    1.0516    1.6020    1.9423 H   0  0  0  0  0  0  0  0  0 13  0  0
    0.9811    2.4047    0.3719 H   0  0  0  0  0  0  0  0  0 14  0  0
  2  1  1  0
  3  1  1  0
  4  3  2  0
  5  4  1  0
  5  2  1  0
  6  5  1  0
  7  1  1  0
  8  1  1  0
  9  2  1  0
 10  2  1  0
 11  3  1  0
 12  6  1  0
 13  6  1  0
 14  6  1  0
M  END
