
     RDKit          3D

 14 12  0  0  0  0  0  0  0  0999 V2000
    1.0603   -1.2249   -1.7192 C   0  0  0  0  0  0  0  0  0  1  0  0
    1.6966   -0.0788   -1.9100 C   0  0  0  0  0  0  0  0  0  2  0  0
    0.7447   -0.5110    2.0240 C   0  0  0  0  0  0  0  0  0  3  0  0
   -0.4076   -0.1981    1.8755 N   0  0  0  0  0  4  0  0  0  4  0  0
   -1.6100   -0.0954    1.6762 N   0  0  0  0  0  2  0  0  0  5  0  0
   -2.0268    0.9956    0.7967 C   0  0  0  0  0  0  0  0  0  6  0  0
    1.0900   -1.7338   -0.7656 H   0  0  0  0  0  0  0  0  0  7  0  0
    0.4750   -1.6997   -2.4985 H   0  0  0  0  0  0  0  0  0  8  0  0
    1.6619    0.4510   -2.8549 H   0  0  0  0  0  0  0  0  0  9  0  0
    2.2882    0.3739   -1.1237 H   0  0  0  0  0  0  0  0  0 10  0  0
    1.4072   -0.0282    2.7237 H   0  0  0  0  0  0  0  0  0 11  0  0
   -1.4539    1.0152   -0.1315 H   0  0  0  0  0  0  0  0  0 12  0  0
   -1.9196    1.9601    1.2948 H   0  0  0  0  0  0  0  0  0 13  0  0
   -3.0767    0.8404    0.5686 H   0  0  0  0  0  0  0  0  0 14  0  0
  2  1  2  0
  4  3  3  0
  5  4  1  0
  6  5  1  0
  7  1  1  0
  8  1  1  0
  9  2  1  0
 10  2  1  0
 11  3  1  0
 12  6  1  0
 13  6  1  0
 14  6  1  0
M  CHG  2   4   1   5  -1
M  END
