
     RDKit          3D

 14 12  0  0  0  0  0  0  0  0999 V2000
   -0.8706   -1.1405   -1.8359 C   0  0  0  0  0  0  0  0  0  1  0  0
   -0.4652    0.0147   -2.3391 C   0  0  0  0  0  0  0  0  0  2  0  0
   -0.8783   -1.2131    1.7776 C   0  0  0  0  0  0  0  0  0  3  0  0
   -0.3034   -0.1705    1.9476 N   0  0  0  0  0  4  0  0  0  4  0  0
    0.0810    0.9829    2.0941 N   0  0  0  0  0  2  0  0  0  5  0  0
    1.2161    1.3845    1.2655 C   0  0  0  0  0  0  0  0  0  6  0  0
   -1.8467   -1.2573   -1.3839 H   0  0  0  0  0  0  0  0  0  7  0  0
   -0.2358   -2.0179   -1.8338 H   0  0  0  0  0  0  0  0  0  8  0  0
    0.5069    0.1277   -2.8058 H   0  0  0  0  0  0  0  0  0  9  0  0
   -1.0831    0.9048   -2.2995 H   0  0  0  0  0  0  0  0  0 10  0  0
   -0.5628   -2.1500    2.2073 H   0  0  0  0  0  0  0  0  0 11  0  0
    1.0851    1.0830    0.2257 H   0  0  0  0  0  0  0  0  0 12  0  0
    2.1439    0.9507    1.6416 H   0  0  0  0  0  0  0  0  0 13  0  0
    1.2929    2.4660    1.3254 H   0  0  0  0  0  0  0  0  0 14  0  0
  2  1  2  0
  4  3  3  0
  5  4  1  0
  6  5  1  0
  7  1  1  0
  8  1  1  0
  9  2  1  0
 10  2  1  0
 11  3  1  0
 12  6  1  0
 13  6  1  0
 14  6  1  0
M  CHG  2   4   1   5  -1
M  END
