
     RDKit          3D

 14 13  0  0  0  0  0  0  0  0999 V2000
    0.5242   -0.3473   -0.7615 C   0  0  0  0  0  0  0  0  0  1  0  0
    0.4838    0.1199   -2.0114 C   0  0  0  0  0  0  0  0  0  2  0  0
    0.8090   -1.1346    1.9521 C   0  0  0  0  0  0  0  0  0  3  0  0
   -0.1297   -0.3569    1.5617 N   0  0  0  0  0  0  0  0  0  4  0  0
   -0.2359    0.0950    0.2999 N   0  0  0  0  0  0  0  0  0  5  0  0
   -1.2819    1.0757    0.0945 C   0  0  0  0  0  0  0  0  0  6  0  0
    1.6414   -1.4906    1.3521 H   0  0  0  0  0  0  0  0  0  7  0  0
    1.1779   -1.1682   -0.5185 H   0  0  0  0  0  0  0  0  0  8  0  0
    1.1306   -0.3170   -2.7550 H   0  0  0  0  0  0  0  0  0  9  0  0
   -0.1667    0.9239   -2.3203 H   0  0  0  0  0  0  0  0  0 10  0  0
    0.7746   -1.4380    2.9868 H   0  0  0  0  0  0  0  0  0 11  0  0
   -0.8673    2.0296   -0.2338 H   0  0  0  0  0  0  0  0  0 12  0  0
   -1.7865    1.2187    1.0410 H   0  0  0  0  0  0  0  0  0 13  0  0
   -2.0026    0.7233   -0.6435 H   0  0  0  0  0  0  0  0  0 14  0  0
  2  1  2  0
  4  3  2  0
  5  4  1  0
  5  1  1  0
  6  5  1  0
  7  3  1  0
  8  1  1  0
  9  2  1  0
 10  2  1  0
 11  3  1  0
 12  6  1  0
 13  6  1  0
 14  6  1  0
M  END
