
     RDKit          3D

 12 11  0  0  0  0  0  0  0  0999 V2000
    1.0893   -1.3401   -0.0629 C   0  0  0  0  0  0  0  0  0  1  0  0
    2.2993   -0.6487    0.0794 O   0  0  0  0  0  0  0  0  0  2  0  0
    0.0478   -0.8655    0.7753 O   0  0  0  0  0  0  0  0  0  3  0  0
   -0.3855    0.4052    0.4757 C   0  0  0  0  0  0  0  0  0  4  0  0
   -1.5926    0.6176   -0.0415 C   0  0  0  0  0  0  0  0  0  5  0  0
   -2.1474    1.8342   -0.3023 O   0  0  0  0  0  0  0  0  0  6  0  0
    1.2719   -2.3548    0.2750 H   0  0  0  0  0  0  0  0  0  7  0  0
    0.7414   -1.3351   -1.1035 H   0  0  0  0  0  0  0  0  0  8  0  0
    2.2546    0.1587   -0.4469 H   0  0  0  0  0  0  0  0  0  9  0  0
    0.2776    1.2247    0.7501 H   0  0  0  0  0  0  0  0  0 10  0  0
   -2.2565   -0.1949   -0.2945 H   0  0  0  0  0  0  0  0  0 11  0  0
   -1.5352    2.5223   -0.0139 H   0  0  0  0  0  0  0  0  0 12  0  0
  2  1  1  0
  3  1  1  0
  4  3  1  0
  5  4  2  0
  6  5  1  0
  7  1  1  0
  8  1  1  0
  9  2  1  0
 10  4  1  0
 11  5  1  0
 12  6  1  0
M  END
