
     RDKit          3D

 12 11  0  0  0  0  0  0  0  0999 V2000
    0.2942   -0.2349   -1.0459 C   0  0  0  0  0  0  0  0  0  1  0  0
    1.5488    0.3903   -1.2159 O   0  0  0  0  0  0  0  0  0  2  0  0
   -1.2900   -1.1588    0.5866 O   0  0  0  0  0  0  0  0  0  3  0  0
   -0.1133   -0.3740    0.4171 C   0  0  2  0  0  0  0  0  0  4  0  0
   -0.3966    0.9608    1.0766 C   0  0  0  0  0  0  0  0  0  5  0  0
    0.0403    2.0197    0.6847 O   0  0  0  0  0  0  0  0  0  6  0  0
   -0.5045    0.2814   -1.5877 H   0  0  0  0  0  0  0  0  0  7  0  0
    0.3765   -1.2373   -1.4700 H   0  0  0  0  0  0  0  0  0  8  0  0
   -1.0730   -2.0714    0.3672 H   0  0  0  0  0  0  0  0  0  9  0  0
    0.7306   -0.8096    0.9716 H   0  0  0  0  0  0  0  0  0 10  0  0
   -1.0442    0.8941    1.9737 H   0  0  0  0  0  0  0  0  0 11  0  0
    1.4566    1.3026   -0.9072 H   0  0  0  0  0  0  0  0  0 12  0  0
  2  1  1  0
  4  3  1  0
  4  1  1  0
  5  4  1  0
  6  5  2  0
  7  1  1  0
  8  1  1  0
  9  3  1  0
  4 10  1  1
 11  5  1  0
 12  2  1  0
M  END
