
     RDKit          3D

 12 10  0  0  0  0  0  0  0  0999 V2000
    1.3382   -1.6488   -0.8167 C   0  0  0  0  0  0  0  0  0  1  0  0
    2.1794   -1.3969    0.0175 O   0  0  0  0  0  0  0  0  0  2  0  0
    0.1894   -0.1508    1.5963 O   0  0  0  0  0  0  0  0  0  3  0  0
   -0.2144    0.7443    0.6355 C   0  0  0  0  0  0  0  0  0  4  0  0
   -1.4885    0.8221    0.2535 C   0  0  0  0  0  0  0  0  0  5  0  0
   -2.0179    1.7087   -0.6465 O   0  0  0  0  0  0  0  0  0  6  0  0
    0.2788   -1.7985   -0.5559 H   0  0  0  0  0  0  0  0  0  7  0  0
    1.6073   -1.7423   -1.8857 H   0  0  0  0  0  0  0  0  0  8  0  0
    1.0851   -0.4495    1.3635 H   0  0  0  0  0  0  0  0  0  9  0  0
    0.5488    1.4074    0.2294 H   0  0  0  0  0  0  0  0  0 10  0  0
   -2.2415    0.1636    0.6600 H   0  0  0  0  0  0  0  0  0 11  0  0
   -1.3293    2.3171   -0.9411 H   0  0  0  0  0  0  0  0  0 12  0  0
  2  1  2  0
  4  3  1  0
  5  4  2  0
  6  5  1  0
  7  1  1  0
  8  1  1  0
  9  3  1  0
 10  4  1  0
 11  5  1  0
 12  6  1  0
M  END
