
     RDKit          3D

 12 10  0  0  0  0  0  0  0  0999 V2000
   -3.7320   -0.7853   -0.1089 C   0  0  0  0  0  0  0  0  0  1  0  0
   -2.6621   -0.2487   -0.2324 O   0  0  0  0  0  0  0  0  0  2  0  0
    0.3462    1.0944   -0.4869 O   0  0  0  0  0  0  0  0  0  3  0  0
    1.3656    0.3252    0.0247 C   0  0  0  0  0  0  0  0  0  4  0  0
    2.6308    0.7332   -0.0147 C   0  0  0  0  0  0  0  0  0  5  0  0
    3.7298    0.0574    0.4618 O   0  0  0  0  0  0  0  0  0  6  0  0
   -4.5548   -0.3286    0.4716 H   0  0  0  0  0  0  0  0  0  7  0  0
   -3.9536   -1.7660   -0.5693 H   0  0  0  0  0  0  0  0  0  8  0  0
   -0.4872    0.6227   -0.3646 H   0  0  0  0  0  0  0  0  0  9  0  0
    1.0916   -0.6310    0.4631 H   0  0  0  0  0  0  0  0  0 10  0  0
    2.9089    1.6801   -0.4484 H   0  0  0  0  0  0  0  0  0 11  0  0
    3.4526   -0.7839    0.8435 H   0  0  0  0  0  0  0  0  0 12  0  0
  2  1  2  0
  4  3  1  0
  5  4  2  0
  6  5  1  0
  7  1  1  0
  8  1  1  0
  9  3  1  0
 10  4  1  0
 11  5  1  0
 12  6  1  0
M  END
