
     RDKit          3D

 12 10  0  0  0  0  0  0  0  0999 V2000
   -0.1676    0.1430   -1.9832 C   0  0  0  0  0  0  0  0  0  1  0  0
   -1.1926    0.7003   -1.6560 O   0  0  0  0  0  0  0  0  0  2  0  0
    1.8268   -0.2257    1.2592 O   0  0  0  0  0  0  0  0  0  3  0  0
    0.5454    0.2015    0.9607 C   0  0  0  0  0  0  0  0  0  4  0  0
   -0.4941   -0.6188    1.1364 C   0  0  0  0  0  0  0  0  0  5  0  0
   -1.7911   -0.3766    0.8214 O   0  0  0  0  0  0  0  0  0  6  0  0
    0.7604    0.7053   -2.2055 H   0  0  0  0  0  0  0  0  0  7  0  0
   -0.1086   -0.9560   -2.1060 H   0  0  0  0  0  0  0  0  0  8  0  0
    2.3027    0.5079    1.6618 H   0  0  0  0  0  0  0  0  0  9  0  0
    0.4560    1.2042    0.5587 H   0  0  0  0  0  0  0  0  0 10  0  0
   -0.3464   -1.5862    1.6015 H   0  0  0  0  0  0  0  0  0 11  0  0
   -1.8150    0.2814    0.1032 H   0  0  0  0  0  0  0  0  0 12  0  0
  2  1  2  0
  4  3  1  0
  5  4  2  0
  6  5  1  0
  7  1  1  0
  8  1  1  0
  9  3  1  0
 10  4  1  0
 11  5  1  0
 12  6  1  0
M  END
