
     RDKit          3D

 12 11  0  0  0  0  0  0  0  0999 V2000
    0.0899    0.2217   -1.0855 C   0  0  0  0  0  0  0  0  0  1  0  0
   -1.0916    0.9241   -1.4085 O   0  0  0  0  0  0  0  0  0  2  0  0
    1.6365   -0.3941    0.7191 O   0  0  0  0  0  0  0  0  0  3  0  0
    0.3601    0.1597    0.4141 C   0  0  2  0  0  0  0  0  0  4  0  0
   -0.6556   -0.6833    1.1590 C   0  0  0  0  0  0  0  0  0  5  0  0
   -1.7691   -0.9260    0.7505 O   0  0  0  0  0  0  0  0  0  6  0  0
    0.9180    0.7557   -1.5556 H   0  0  0  0  0  0  0  0  0  7  0  0
    0.0916   -0.7964   -1.4874 H   0  0  0  0  0  0  0  0  0  8  0  0
    2.3091    0.2345    0.4354 H   0  0  0  0  0  0  0  0  0  9  0  0
    0.2660    1.1755    0.8248 H   0  0  0  0  0  0  0  0  0 10  0  0
   -0.2979   -1.0647    2.1362 H   0  0  0  0  0  0  0  0  0 11  0  0
   -1.8327    0.4129   -1.0541 H   0  0  0  0  0  0  0  0  0 12  0  0
  2  1  1  0
  4  3  1  0
  4  1  1  0
  5  4  1  0
  6  5  2  0
  7  1  1  0
  8  1  1  0
  9  3  1  0
  4 10  1  1
 11  5  1  0
 12  2  1  0
M  END
