
     RDKit          3D

 12 10  0  0  0  0  0  0  0  0999 V2000
   -3.5039   -0.7696   -0.0589 C   0  0  0  0  0  0  0  0  0  1  0  0
   -2.3511   -0.4491    0.0693 O   0  0  0  0  0  0  0  0  0  2  0  0
    0.5179    1.1406   -0.0574 O   0  0  0  0  0  0  0  0  0  3  0  0
    1.4559    0.1211    0.2250 C   0  0  0  0  0  0  0  0  0  4  0  0
    2.8193    0.5585   -0.2282 C   0  0  0  0  0  0  0  0  0  5  0  0
    3.7882   -0.1623   -0.1981 O   0  0  0  0  0  0  0  0  0  6  0  0
   -4.3282   -0.1916    0.3972 H   0  0  0  0  0  0  0  0  0  7  0  0
   -3.8042   -1.6616   -0.6386 H   0  0  0  0  0  0  0  0  0  8  0  0
   -0.3645    0.7572    0.0112 H   0  0  0  0  0  0  0  0  0  9  0  0
    1.2310   -0.8299   -0.2706 H   0  0  0  0  0  0  0  0  0 10  0  0
    2.8738    1.6071   -0.5909 H   0  0  0  0  0  0  0  0  0 11  0  0
    1.5298   -0.0899    1.3005 H   0  0  0  0  0  0  0  0  0 12  0  0
  2  1  2  0
  4  3  1  0
  5  4  1  0
  6  5  2  0
  7  1  1  0
  8  1  1  0
  9  3  1  0
 10  4  1  0
 11  5  1  0
 12  4  1  0
M  END
