
     RDKit          3D

 12 10  0  0  0  0  0  0  0  0999 V2000
    0.4920   -0.0098   -1.9337 C   0  0  0  0  0  0  0  0  0  1  0  0
    1.4486    0.5864   -1.4889 O   0  0  0  0  0  0  0  0  0  2  0  0
   -1.3260   -1.3877    1.1365 O   0  0  0  0  0  0  0  0  0  3  0  0
   -0.2537   -0.5327    0.9547 C   0  0  0  0  0  0  0  0  0  4  0  0
   -0.4238    0.7883    1.0557 C   0  0  0  0  0  0  0  0  0  5  0  0
    0.5029    1.7535    0.8335 O   0  0  0  0  0  0  0  0  0  6  0  0
   -0.4449    0.5086   -2.2162 H   0  0  0  0  0  0  0  0  0  7  0  0
    0.5123   -1.1033   -2.1096 H   0  0  0  0  0  0  0  0  0  8  0  0
   -1.0170   -2.1583    1.6235 H   0  0  0  0  0  0  0  0  0  9  0  0
    0.6931   -0.9975    0.7044 H   0  0  0  0  0  0  0  0  0 10  0  0
   -1.3807    1.1870    1.3712 H   0  0  0  0  0  0  0  0  0 11  0  0
    1.1717    1.4025    0.2181 H   0  0  0  0  0  0  0  0  0 12  0  0
  2  1  2  0
  4  3  1  0
  5  4  2  0
  6  5  1  0
  7  1  1  0
  8  1  1  0
  9  3  1  0
 10  4  1  0
 11  5  1  0
 12  6  1  0
M  END
