
     RDKit          3D

 12 11  0  0  0  0  0  0  0  0999 V2000
   -0.4904   -0.5543   -1.0279 O   0  0  0  0  0  3  0  0  0  1  0  0
   -1.0832    0.2503   -1.8034 C   0  0  0  0  0  3  0  0  0  2  0  0
   -0.4730    0.0897    0.4829 C   0  0  2  0  0  0  0  0  0  3  0  0
   -0.9994    1.3115    0.3651 O   0  0  0  0  0  0  0  0  0  4  0  0
    0.9727    0.0640    0.9196 C   0  0  0  0  0  0  0  0  0  5  0  0
    1.4754   -1.2317    1.1826 O   0  0  0  0  0  0  0  0  0  6  0  0
   -1.2903    1.3375   -0.6631 H   0  0  0  0  0  0  0  0  0  7  0  0
   -1.0915   -0.6446    1.0093 H   0  0  0  0  0  0  0  0  0  8  0  0
   -1.0907   -0.1558   -2.8281 H   0  0  0  0  0  0  0  0  0  9  0  0
    1.0212    0.6144    1.8612 H   0  0  0  0  0  0  0  0  0 10  0  0
    1.5717    0.6098    0.1851 H   0  0  0  0  0  0  0  0  0 11  0  0
    1.5654   -1.6928    0.3419 H   0  0  0  0  0  0  0  0  0 12  0  0
  2  1  2  0
  3  1  1  0
  4  3  1  0
  5  3  1  0
  6  5  1  0
  7  4  1  0
  3  8  1  1
  9  2  1  0
 10  5  1  0
 11  5  1  0
 12  6  1  0
M  CHG  2   1   1   2  -1
M  END
