
     RDKit          3D

 12 11  0  0  0  0  0  0  0  0999 V2000
    1.1239   -1.1040    1.3158 O   0  0  0  0  0  0  0  0  0  1  0  0
    1.1738    0.0644    0.6083 C   0  0  0  0  0  0  0  0  0  2  0  0
    0.2812    0.5022   -0.2808 C   0  0  0  0  0  0  0  0  0  3  0  0
    0.4185    1.6781   -0.9958 O   0  0  0  0  0  0  0  0  0  4  0  0
   -0.9622   -0.2245   -0.6857 C   0  0  0  0  0  0  0  0  0  5  0  0
   -1.4420   -1.1418    0.3098 O   0  0  0  0  0  0  0  0  0  6  0  0
    0.2786   -1.5371    1.0920 H   0  0  0  0  0  0  0  0  0  7  0  0
    1.2573    2.0900   -0.7599 H   0  0  0  0  0  0  0  0  0  8  0  0
    2.0617    0.6403    0.8338 H   0  0  0  0  0  0  0  0  0  9  0  0
   -0.7847   -0.8256   -1.5775 H   0  0  0  0  0  0  0  0  0 10  0  0
   -1.7347    0.5055   -0.9403 H   0  0  0  0  0  0  0  0  0 11  0  0
   -1.7760   -0.6086    1.0429 H   0  0  0  0  0  0  0  0  0 12  0  0
  2  1  1  0
  3  2  2  0
  4  3  1  0
  5  3  1  0
  6  5  1  0
  7  1  1  0
  8  4  1  0
  9  2  1  0
 10  5  1  0
 11  5  1  0
 12  6  1  0
M  END
