
     RDKit          3D

 12 10  0  0  0  0  0  0  0  0999 V2000
    0.8656   -1.1460    1.3156 O   0  0  0  0  0  0  0  0  0  1  0  0
    1.6823   -0.3152    1.6324 C   0  0  0  0  0  0  0  0  0  2  0  0
   -0.0351    0.6312   -1.2617 C   0  0  0  0  0  0  0  0  0  3  0  0
    0.6797    1.5119   -0.8361 O   0  0  0  0  0  0  0  0  0  4  0  0
   -1.3598    0.2470   -0.6664 C   0  0  0  0  0  0  0  0  0  5  0  0
   -1.5770   -1.1513   -0.7004 O   0  0  0  0  0  0  0  0  0  6  0  0
    2.0230    0.4592    0.9309 H   0  0  0  0  0  0  0  0  0  7  0  0
    0.2452    0.0452   -2.1629 H   0  0  0  0  0  0  0  0  0  8  0  0
    2.1299   -0.2926    2.6453 H   0  0  0  0  0  0  0  0  0  9  0  0
   -2.1353    0.7028   -1.2921 H   0  0  0  0  0  0  0  0  0 10  0  0
   -1.4444    0.6788    0.3336 H   0  0  0  0  0  0  0  0  0 11  0  0
   -0.9854   -1.5463   -0.0455 H   0  0  0  0  0  0  0  0  0 12  0  0
  2  1  2  0
  4  3  2  0
  5  3  1  0
  6  5  1  0
  7  2  1  0
  8  3  1  0
  9  2  1  0
 10  5  1  0
 11  5  1  0
 12  6  1  0
M  END
