
     RDKit          3D

 12 11  0  0  0  0  0  0  0  0999 V2000
   -0.5745   -1.0522    1.2781 O   0  0  0  0  0  0  0  0  0  1  0  0
    0.4457   -0.4167    0.5633 C   0  0  0  0  0  0  0  0  0  2  0  0
   -0.0304    0.2412   -0.7244 C   0  0  0  0  0  0  0  0  0  3  0  0
    0.7343    1.2770   -1.1600 O   0  0  0  0  0  0  0  0  0  4  0  0
   -1.1004   -0.1804   -1.3970 C   0  0  0  0  0  0  0  0  0  5  0  0
    1.0869    0.6108    1.3184 O   0  0  0  0  0  0  0  0  0  6  0  0
   -1.3250   -0.4413    1.3255 H   0  0  0  0  0  0  0  0  0  7  0  0
    1.3029    1.5509   -0.4248 H   0  0  0  0  0  0  0  0  0  8  0  0
    1.1643   -1.2148    0.3549 H   0  0  0  0  0  0  0  0  0  9  0  0
   -1.6760   -1.0186   -1.0433 H   0  0  0  0  0  0  0  0  0 10  0  0
   -1.4026    0.2956   -2.3163 H   0  0  0  0  0  0  0  0  0 11  0  0
    1.3648    0.2275    2.1596 H   0  0  0  0  0  0  0  0  0 12  0  0
  2  1  1  0
  3  2  1  0
  4  3  1  0
  5  3  2  0
  6  2  1  0
  7  1  1  0
  8  4  1  0
  9  2  1  0
 10  5  1  0
 11  5  1  0
 12  6  1  0
M  END
