
     RDKit          3D

 12 11  0  0  0  0  0  0  0  0999 V2000
    0.1206   -0.7442    1.7159 O   0  0  0  0  0  0  0  0  0  1  0  0
    0.9214   -0.1731    0.7641 C   0  0  0  0  0  0  0  0  0  2  0  0
    0.1814    0.3316   -0.4132 C   0  0  0  0  0  0  0  0  0  3  0  0
    0.7185    1.1782   -1.2570 O   0  0  0  0  0  3  0  0  0  4  0  0
   -1.1939   -0.1169   -0.6436 C   0  0  0  0  0  0  0  0  0  5  0  0
   -1.5402   -1.2311   -0.0215 O   0  0  0  0  0  1  0  0  0  6  0  0
    1.6551   -0.8917    0.3286 H   0  0  0  0  0  0  0  0  0  7  0  0
    1.6149    1.4097   -0.9623 H   0  0  0  0  0  0  0  0  0  8  0  0
    1.5393    0.6482    1.1679 H   0  0  0  0  0  0  0  0  0  9  0  0
   -1.4175   -0.0401   -1.7279 H   0  0  0  0  0  0  0  0  0 10  0  0
   -1.7117    0.8108   -0.2394 H   0  0  0  0  0  0  0  0  0 11  0  0
   -0.6933   -1.1374    1.1688 H   0  0  0  0  0  0  0  0  0 12  0  0
  2  1  1  0
  3  2  1  0
  4  3  2  0
  5  3  1  0
  6  5  1  0
  7  2  1  0
  8  4  1  0
  9  2  1  0
 10  5  1  0
 11  5  1  0
 12  1  1  0
M  CHG  2   4   1   6  -1
M  END
