
     RDKit          3D

 12 10  0  0  0  0  0  0  0  0999 V2000
   -0.1839   -0.7560   -1.7674 O   0  0  0  0  0  0  0  0  0  1  0  0
   -0.9910    0.0399   -2.1824 C   0  0  0  0  0  0  0  0  0  2  0  0
   -0.4508    0.3483    1.2673 C   0  0  0  0  0  0  0  0  0  3  0  0
   -1.0342    1.3135    0.8247 O   0  0  0  0  0  0  0  0  0  4  0  0
    1.0318    0.1285    1.1652 C   0  0  0  0  0  0  0  0  0  5  0  0
    1.3605   -1.2311    0.9493 O   0  0  0  0  0  0  0  0  0  6  0  0
   -1.4453    0.7975   -1.5290 H   0  0  0  0  0  0  0  0  0  7  0  0
   -0.9921   -0.4532    1.8136 H   0  0  0  0  0  0  0  0  0  8  0  0
   -1.3134    0.0455   -3.2419 H   0  0  0  0  0  0  0  0  0  9  0  0
    1.4624    0.4076    2.1336 H   0  0  0  0  0  0  0  0  0 10  0  0
    1.4443    0.8046    0.4124 H   0  0  0  0  0  0  0  0  0 11  0  0
    1.0948   -1.4472    0.0450 H   0  0  0  0  0  0  0  0  0 12  0  0
  2  1  2  0
  4  3  2  0
  5  3  1  0
  6  5  1  0
  7  2  1  0
  8  3  1  0
  9  2  1  0
 10  5  1  0
 11  5  1  0
 12  6  1  0
M  END
