
     RDKit          3D

 12 11  0  0  0  0  0  0  0  0999 V2000
   -0.4880   -0.5569   -1.0250 O   0  0  0  0  0  3  0  0  0  1  0  0
   -1.0901    0.2423   -1.7988 C   0  0  0  0  0  3  0  0  0  2  0  0
   -0.4794    0.0850    0.4880 C   0  0  2  0  0  0  0  0  0  3  0  0
   -1.0195    1.3007    0.3712 O   0  0  0  0  0  0  0  0  0  4  0  0
    0.9660    0.0739    0.9263 C   0  0  0  0  0  0  0  0  0  5  0  0
    1.4778   -1.2157    1.2019 O   0  0  0  0  0  0  0  0  0  6  0  0
   -1.3114    1.3240   -0.6570 H   0  0  0  0  0  0  0  0  0  7  0  0
   -1.0904   -0.6573    1.0120 H   0  0  0  0  0  0  0  0  0  8  0  0
   -1.0901   -0.1588   -2.8253 H   0  0  0  0  0  0  0  0  0  9  0  0
    1.0098    0.6334    1.8628 H   0  0  0  0  0  0  0  0  0 10  0  0
    1.5626    0.6169    0.1875 H   0  0  0  0  0  0  0  0  0 11  0  0
    1.5696   -1.6852    0.3660 H   0  0  0  0  0  0  0  0  0 12  0  0
  2  1  2  0
  3  1  1  0
  4  3  1  0
  5  3  1  0
  6  5  1  0
  7  4  1  0
  3  8  1  1
  9  2  1  0
 10  5  1  0
 11  5  1  0
 12  6  1  0
M  CHG  2   1   1   2  -1
M  END
