
     RDKit          3D

 12 11  0  0  0  0  0  0  0  0999 V2000
    1.0228   -1.0162    1.0003 O   0  0  0  0  0  0  0  0  0  1  0  0
    1.0919    0.3320    0.5216 C   0  0  0  0  0  0  0  0  0  2  0  0
    0.1475    0.6500   -0.6251 C   0  0  0  0  0  0  0  0  0  3  0  0
    0.4872    1.3930   -1.5229 O   0  0  0  0  0  0  0  0  0  4  0  0
   -1.2303    0.0208   -0.6028 C   0  0  0  0  0  0  0  0  0  5  0  0
   -1.6646   -0.4635    0.6474 O   0  0  0  0  0  0  0  0  0  6  0  0
    1.4292   -1.5909    0.3405 H   0  0  0  0  0  0  0  0  0  7  0  0
    2.1020    0.6176    0.2329 H   0  0  0  0  0  0  0  0  0  8  0  0
    0.7940    0.9582    1.3640 H   0  0  0  0  0  0  0  0  0  9  0  0
   -1.2207   -0.7613   -1.3755 H   0  0  0  0  0  0  0  0  0 10  0  0
   -1.9360    0.7759   -0.9447 H   0  0  0  0  0  0  0  0  0 11  0  0
   -0.9598   -1.0352    0.9929 H   0  0  0  0  0  0  0  0  0 12  0  0
  2  1  1  0
  3  2  1  0
  4  3  2  0
  5  3  1  0
  6  5  1  0
  7  1  1  0
  8  2  1  0
  9  2  1  0
 10  5  1  0
 11  5  1  0
 12  6  1  0
M  END
