
     RDKit          3D

 12 12  0  0  0  0  0  0  0  0999 V2000
   -0.0872   -0.5429    1.8495 O   0  0  0  0  0  0  0  0  0  1  0  0
    0.7731    0.0040    0.8742 C   0  0  0  0  0  0  0  0  0  2  0  0
    0.1187    0.1397   -0.4852 C   0  0  2  0  0  0  0  0  0  3  0  0
    0.9389    0.6353   -1.4869 O   0  0  0  0  0  0  0  0  0  4  0  0
   -1.3090    0.3504   -0.6138 C   0  0  0  0  0  0  0  0  0  5  0  0
   -0.7244   -0.9554   -0.8332 O   0  0  0  0  0  0  0  0  0  6  0  0
    1.6859   -0.5990    0.7567 H   0  0  0  0  0  0  0  0  0  7  0  0
    1.7200    0.0700   -1.5502 H   0  0  0  0  0  0  0  0  0  8  0  0
    1.0788    0.9924    1.2182 H   0  0  0  0  0  0  0  0  0  9  0  0
   -1.6914    0.8296   -1.5050 H   0  0  0  0  0  0  0  0  0 10  0  0
   -1.9195    0.4326    0.2773 H   0  0  0  0  0  0  0  0  0 11  0  0
   -0.4909   -1.3257    1.4512 H   0  0  0  0  0  0  0  0  0 12  0  0
  2  1  1  0
  3  2  1  0
  3  4  1  6
  5  3  1  0
  6  5  1  0
  6  3  1  0
  7  2  1  0
  8  4  1  0
  9  2  1  0
 10  5  1  0
 11  5  1  0
 12  1  1  0
M  END
