
     RDKit          3D

 12 11  0  0  0  0  0  0  0  0999 V2000
    0.4964   -1.2723    1.3644 O   0  0  0  0  0  1  0  0  0  1  0  0
    1.0066   -0.2652    0.7017 C   0  0  0  0  0  0  0  0  0  2  0  0
    0.1712    0.3673   -0.3430 C   0  0  0  0  0  0  0  0  0  3  0  0
    0.6446    1.2799   -1.1528 O   0  0  0  0  0  3  0  0  0  4  0  0
   -1.2163   -0.0639   -0.5675 C   0  0  0  0  0  0  0  0  0  5  0  0
   -1.8279   -0.6648    0.5104 O   0  0  0  0  0  0  0  0  0  6  0  0
    1.9863   -0.4723    0.1704 H   0  0  0  0  0  0  0  0  0  7  0  0
    1.5737    1.4513   -0.9223 H   0  0  0  0  0  0  0  0  0  8  0  0
    1.3238    0.6339    1.3212 H   0  0  0  0  0  0  0  0  0  9  0  0
   -1.1133   -0.7671   -1.4254 H   0  0  0  0  0  0  0  0  0 10  0  0
   -1.7991    0.7778   -0.9619 H   0  0  0  0  0  0  0  0  0 11  0  0
   -1.0759   -1.1041    1.0270 H   0  0  0  0  0  0  0  0  0 12  0  0
  2  1  1  0
  3  2  1  0
  4  3  2  0
  5  3  1  0
  6  5  1  0
  7  2  1  0
  8  4  1  0
  9  2  1  0
 10  5  1  0
 11  5  1  0
 12  6  1  0
M  CHG  2   1  -1   4   1
M  END
