
     RDKit          3D

 12 11  0  0  0  0  0  0  0  0999 V2000
    1.3955   -1.0703    0.1271 O   0  0  0  0  0  0  0  0  0  1  0  0
    1.1772    0.3359    0.2898 C   0  0  0  0  0  0  0  0  0  2  0  0
   -0.1369    0.8461   -0.2762 C   0  0  0  0  0  0  0  0  0  3  0  0
   -0.2022    1.9325   -0.8136 O   0  0  0  0  0  0  0  0  0  4  0  0
   -1.3593   -0.0378   -0.1360 C   0  0  0  0  0  0  0  0  0  5  0  0
   -1.2768   -1.0507    0.8405 O   0  0  0  0  0  0  0  0  0  6  0  0
    1.5853   -1.2389   -0.8035 H   0  0  0  0  0  0  0  0  0  7  0  0
    1.9901    0.9314   -0.1221 H   0  0  0  0  0  0  0  0  0  8  0  0
    1.1487    0.5062    1.3671 H   0  0  0  0  0  0  0  0  0  9  0  0
   -1.5638   -0.4377   -1.1394 H   0  0  0  0  0  0  0  0  0 10  0  0
   -2.1995    0.6095    0.1090 H   0  0  0  0  0  0  0  0  0 11  0  0
   -0.4507   -1.5355    0.6812 H   0  0  0  0  0  0  0  0  0 12  0  0
  2  1  1  0
  3  2  1  0
  4  3  2  0
  5  3  1  0
  6  5  1  0
  7  1  1  0
  8  2  1  0
  9  2  1  0
 10  5  1  0
 11  5  1  0
 12  6  1  0
M  END
