
     RDKit          3D

 12 10  0  0  0  0  0  0  0  0999 V2000
   -0.2015    0.0153   -1.9261 O   0  0  0  0  0  0  0  0  0  1  0  0
    0.8958    0.4749   -2.1313 C   0  0  0  0  0  0  0  0  0  2  0  0
    0.0458    0.6514    1.2418 C   0  0  0  0  0  0  0  0  0  3  0  0
    1.1960    0.9773    1.0457 O   0  0  0  0  0  0  0  0  0  4  0  0
   -0.4446   -0.7683    1.2625 C   0  0  0  0  0  0  0  0  0  5  0  0
   -1.7317   -0.9012    0.6891 O   0  0  0  0  0  0  0  0  0  6  0  0
    1.4045    1.1103   -1.3932 H   0  0  0  0  0  0  0  0  0  7  0  0
   -0.7422    1.4075    1.4455 H   0  0  0  0  0  0  0  0  0  8  0  0
    1.4441    0.2800   -3.0739 H   0  0  0  0  0  0  0  0  0  9  0  0
   -0.5360   -1.0580    2.3154 H   0  0  0  0  0  0  0  0  0 10  0  0
    0.3075   -1.4157    0.8052 H   0  0  0  0  0  0  0  0  0 11  0  0
   -1.6331   -0.7716   -0.2641 H   0  0  0  0  0  0  0  0  0 12  0  0
  2  1  2  0
  4  3  2  0
  5  3  1  0
  6  5  1  0
  7  2  1  0
  8  3  1  0
  9  2  1  0
 10  5  1  0
 11  5  1  0
 12  6  1  0
M  END
