
     RDKit          3D

 12 11  0  0  0  0  0  0  0  0999 V2000
    0.0773   -0.6445    1.7532 O   0  0  0  0  0  0  0  0  0  1  0  0
    0.9133   -0.1769    0.7764 C   0  0  0  0  0  0  0  0  0  2  0  0
    0.2121    0.2884   -0.4405 C   0  0  0  0  0  0  0  0  0  3  0  0
    0.8112    1.0295   -1.3402 O   0  0  0  0  0  3  0  0  0  4  0  0
   -1.1917   -0.0740   -0.6472 C   0  0  0  0  0  0  0  0  0  5  0  0
   -1.6195   -1.1156    0.0455 O   0  0  0  0  0  1  0  0  0  6  0  0
    1.6181   -0.9550    0.3993 H   0  0  0  0  0  0  0  0  0  7  0  0
    1.7226    1.2126   -1.0577 H   0  0  0  0  0  0  0  0  0  8  0  0
    1.5658    0.6402    1.1336 H   0  0  0  0  0  0  0  0  0  9  0  0
   -1.4110   -0.0520   -1.7351 H   0  0  0  0  0  0  0  0  0 10  0  0
   -1.6390    0.9143   -0.3067 H   0  0  0  0  0  0  0  0  0 11  0  0
   -0.7629   -1.0101    1.2275 H   0  0  0  0  0  0  0  0  0 12  0  0
  2  1  1  0
  3  2  1  0
  4  3  2  0
  5  3  1  0
  6  5  1  0
  7  2  1  0
  8  4  1  0
  9  2  1  0
 10  5  1  0
 11  5  1  0
 12  1  1  0
M  CHG  2   4   1   6  -1
M  END
