
     RDKit          3D

 12 11  0  0  0  0  0  0  0  0999 V2000
    1.1891   -1.1589    1.2317 O   0  0  0  0  0  0  0  0  0  1  0  0
    1.2053    0.0437    0.5823 C   0  0  0  0  0  0  0  0  0  2  0  0
    0.2820    0.5144   -0.2575 C   0  0  0  0  0  0  0  0  0  3  0  0
    0.3837    1.7285   -0.9122 O   0  0  0  0  0  0  0  0  0  4  0  0
   -0.9616   -0.2093   -0.6672 C   0  0  0  0  0  0  0  0  0  5  0  0
   -1.4046   -1.1805    0.2936 O   0  0  0  0  0  0  0  0  0  6  0  0
    0.3412   -1.5899    1.0135 H   0  0  0  0  0  0  0  0  0  7  0  0
    1.2246    2.1381   -0.6801 H   0  0  0  0  0  0  0  0  0  8  0  0
    2.0931    0.6187    0.8105 H   0  0  0  0  0  0  0  0  0  9  0  0
   -0.7984   -0.7637   -1.5914 H   0  0  0  0  0  0  0  0  0 10  0  0
   -1.7496    0.5210   -0.8670 H   0  0  0  0  0  0  0  0  0 11  0  0
   -1.7294   -0.6880    1.0586 H   0  0  0  0  0  0  0  0  0 12  0  0
  2  1  1  0
  3  2  2  0
  4  3  1  0
  5  3  1  0
  6  5  1  0
  7  1  1  0
  8  4  1  0
  9  2  1  0
 10  5  1  0
 11  5  1  0
 12  6  1  0
M  END
