
     RDKit          3D

 12 11  0  0  0  0  0  0  0  0999 V2000
    0.2121   -0.6884    1.7764 O   0  0  0  0  0  1  0  0  0  1  0  0
    0.9221   -0.1524    0.8147 C   0  0  0  0  0  0  0  0  0  2  0  0
    0.1990    0.3556   -0.3617 C   0  0  0  0  0  0  0  0  0  3  0  0
    0.7393    1.1938   -1.2095 O   0  0  0  0  0  3  0  0  0  4  0  0
   -1.1854   -0.0711   -0.6121 C   0  0  0  0  0  0  0  0  0  5  0  0
   -1.5356   -1.2571    0.0050 O   0  0  0  0  0  0  0  0  0  6  0  0
    1.6105   -0.8687    0.2523 H   0  0  0  0  0  0  0  0  0  7  0  0
    1.6453    1.3962   -0.9214 H   0  0  0  0  0  0  0  0  0  8  0  0
    1.6607    0.6388    1.1129 H   0  0  0  0  0  0  0  0  0  9  0  0
   -1.3733   -0.0927   -1.6917 H   0  0  0  0  0  0  0  0  0 10  0  0
   -1.7809    0.7862   -0.2271 H   0  0  0  0  0  0  0  0  0 11  0  0
   -1.0112   -1.2550    0.8748 H   0  0  0  0  0  0  0  0  0 12  0  0
  2  1  1  0
  3  2  1  0
  4  3  2  0
  5  3  1  0
  6  5  1  0
  7  2  1  0
  8  4  1  0
  9  2  1  0
 10  5  1  0
 11  5  1  0
 12  6  1  0
M  CHG  2   1  -1   4   1
M  END
