
     RDKit          3D

 12 11  0  0  0  0  0  0  0  0999 V2000
    0.7729   -0.9406    1.9153 O   0  0  0  0  0  0  0  0  0  1  0  0
    0.1852    0.1601    1.3489 C   0  0  0  0  0  0  0  0  0  2  0  0
   -0.7037    0.1169    0.3787 C   0  0  0  0  0  0  0  0  0  3  0  0
    1.9773    0.2130   -1.5763 O   0  0  0  0  0  0  0  0  0  4  0  0
   -1.5733    0.5928   -0.6431 C   0  0  0  0  0  0  0  0  0  5  0  0
   -1.2958   -0.8385   -0.4078 O   0  0  0  0  0  0  0  0  0  6  0  0
    1.7492    0.1723   -0.6409 H   0  0  0  0  0  0  0  0  0  7  0  0
    1.8172   -0.6832   -1.8899 H   0  0  0  0  0  0  0  0  0  8  0  0
    0.5023    1.0919    1.7805 H   0  0  0  0  0  0  0  0  0  9  0  0
   -1.1544    0.9841   -1.5650 H   0  0  0  0  0  0  0  0  0 10  0  0
   -2.5844    0.8979   -0.4011 H   0  0  0  0  0  0  0  0  0 11  0  0
    0.3934   -1.7311    1.5094 H   0  0  0  0  0  0  0  0  0 12  0  0
  2  1  1  0
  3  2  2  0
  5  3  1  0
  6  5  1  0
  6  3  1  0
  7  4  1  0
  8  4  1  0
  9  2  1  0
 10  5  1  0
 11  5  1  0
 12  1  1  0
M  END
