
     RDKit          3D

 12 11  0  0  0  0  0  0  0  0999 V2000
    1.1330   -1.1818    1.2550 O   0  0  0  0  0  0  0  0  0  1  0  0
    1.1863    0.0172    0.6008 C   0  0  0  0  0  0  0  0  0  2  0  0
    0.2861    0.5045   -0.2544 C   0  0  0  0  0  0  0  0  0  3  0  0
    0.4264    1.7098   -0.9183 O   0  0  0  0  0  0  0  0  0  4  0  0
   -0.9713   -0.1898   -0.6732 C   0  0  0  0  0  0  0  0  0  5  0  0
   -1.4459   -1.1477    0.2857 O   0  0  0  0  0  0  0  0  0  6  0  0
    0.2805   -1.5958    1.0227 H   0  0  0  0  0  0  0  0  0  7  0  0
    1.2723    2.1029   -0.6758 H   0  0  0  0  0  0  0  0  0  8  0  0
    2.0837    0.5725    0.8399 H   0  0  0  0  0  0  0  0  0  9  0  0
   -0.8141   -0.7502   -1.5947 H   0  0  0  0  0  0  0  0  0 10  0  0
   -1.7392    0.5595   -0.8816 H   0  0  0  0  0  0  0  0  0 11  0  0
   -1.7623   -0.6464    1.0484 H   0  0  0  0  0  0  0  0  0 12  0  0
  2  1  1  0
  3  2  2  0
  4  3  1  0
  5  3  1  0
  6  5  1  0
  7  1  1  0
  8  4  1  0
  9  2  1  0
 10  5  1  0
 11  5  1  0
 12  6  1  0
M  END
