
     RDKit          3D

 11  8  0  0  0  0  0  0  0  0999 V2000
   -0.5890   -0.5635   -0.2138 C   0  0  0  0  0  0  0  0  0  1  0  0
    0.4046   -0.1408   -1.2686 C   0  0  0  0  0  3  0  0  0  2  0  0
    0.1548   -0.1299   -2.4518 O   0  0  0  0  0  1  0  0  0  3  0  0
    0.0610   -0.8249    1.0637 N   0  0  0  0  0  0  0  0  0  4  0  0
   -1.3088    0.2584   -0.1369 H   0  0  0  0  0  0  0  0  0  5  0  0
   -1.1473   -1.4169   -0.6106 H   0  0  0  0  0  0  0  0  0  6  0  0
    1.3850    0.1899   -0.8706 H   0  0  0  0  0  0  0  0  0  7  0  0
    0.4039    2.5292    0.5356 H   0  0  0  0  0 15  0  0  0  8  0  0
    0.0200   -1.8040    1.3021 H   0  0  0  0  0  0  0  0  0  9  0  0
    1.0108    2.3971    0.9249 H   0  0  0  0  0 15  0  0  0 10  0  0
   -0.3730   -0.3088    1.8091 H   0  0  0  0  0  0  0  0  0 11  0  0
  2  1  1  0
  3  2  1  0
  4  1  1  0
  5  1  1  0
  6  1  1  0
  7  2  1  0
  9  4  1  0
 11  4  1  0
M  CHG  4   2  -1   3  -1   8   1  10   1
M  END
