
     RDKit          3D

 11 10  0  0  0  0  0  0  0  0999 V2000
   -0.0394   -0.8223   -1.0830 C   0  0  0  0  0  0  0  0  0  1  0  0
   -0.1543    0.5025   -1.6757 C   0  0  0  0  0  0  0  0  0  2  0  0
    0.8788    0.2169   -0.7249 O   0  0  0  0  0  0  0  0  0  3  0  0
   -0.1354    0.1823    2.3062 N   0  0  0  0  0  0  0  0  0  4  0  0
    0.3926   -1.6315   -1.6630 H   0  0  0  0  0  0  0  0  0  5  0  0
   -0.7278   -1.1253   -0.3022 H   0  0  0  0  0  0  0  0  0  6  0  0
   -0.9301    1.1768   -1.3285 H   0  0  0  0  0  0  0  0  0  7  0  0
    0.1873    0.6700   -2.6915 H   0  0  0  0  0  0  0  0  0  8  0  0
    0.4468    0.3537    1.4932 H   0  0  0  0  0  0  0  0  0  9  0  0
   -0.2136    1.0612    2.8004 H   0  0  0  0  0  0  0  0  0 10  0  0
    0.3836   -0.4429    2.9079 H   0  0  0  0  0  0  0  0  0 11  0  0
  2  1  1  0
  3  2  1  0
  3  1  1  0
  5  1  1  0
  6  1  1  0
  7  2  1  0
  8  2  1  0
  9  4  1  0
 10  4  1  0
 11  4  1  0
M  END
