
     RDKit          3D

 11  8  0  0  0  0  0  0  0  0999 V2000
   -0.3640   -0.8289   -0.6042 C   0  0  0  0  0  0  0  0  0  1  0  0
    0.0064    0.5488   -1.0966 C   0  0  0  0  0  3  0  0  0  2  0  0
    0.6605    0.7488   -2.0943 O   0  0  0  0  0  1  0  0  0  3  0  0
   -0.6164   -0.8223    0.8302 N   0  0  0  0  0  0  0  0  0  4  0  0
   -1.2875   -1.0854   -1.1369 H   0  0  0  0  0  0  0  0  0  5  0  0
    0.4020   -1.5315   -0.9506 H   0  0  0  0  0  0  0  0  0  6  0  0
    0.9196    2.1899    1.4714 H   0  0  0  0  0 15  0  0  0  7  0  0
   -0.3796    1.3810   -0.4763 H   0  0  0  0  0  0  0  0  0  8  0  0
    1.5972    1.9746    1.6625 H   0  0  0  0  0 15  0  0  0  9  0  0
    0.2543   -0.8464    1.3424 H   0  0  0  0  0  0  0  0  0 10  0  0
   -1.1354   -1.6457    1.0983 H   0  0  0  0  0  0  0  0  0 11  0  0
  2  1  1  0
  3  2  1  0
  4  1  1  0
  5  1  1  0
  6  1  1  0
  8  2  1  0
 10  4  1  0
 11  4  1  0
M  CHG  4   2  -1   3  -1   7   1   9   1
M  END
