
     RDKit          3D

 11 10  0  0  0  0  0  0  0  0999 V2000
   -0.6099   -0.3693   -0.8739 C   0  0  0  0  0  0  0  0  0  1  0  0
    0.2312   -1.3940   -1.4797 C   0  0  0  0  0  0  0  0  0  2  0  0
    0.8148   -0.2573   -0.8388 O   0  0  0  0  0  0  0  0  0  3  0  0
    0.4493    1.6934    2.1266 N   0  0  0  0  0  0  0  0  0  4  0  0
    0.6927    1.3339    1.2127 H   0  0  0  0  0  0  0  0  0  5  0  0
   -1.1185    0.3545   -1.5020 H   0  0  0  0  0  0  0  0  0  6  0  0
    0.3445   -1.4283   -2.5584 H   0  0  0  0  0  0  0  0  0  7  0  0
    0.3732   -2.3417   -0.9704 H   0  0  0  0  0  0  0  0  0  8  0  0
   -0.4799    2.0828    2.0569 H   0  0  0  0  0  0  0  0  0  9  0  0
   -1.0857   -0.5723    0.0817 H   0  0  0  0  0  0  0  0  0 10  0  0
    0.3905    0.8998    2.7481 H   0  0  0  0  0  0  0  0  0 11  0  0
  2  1  1  0
  3  2  1  0
  3  1  1  0
  5  4  1  0
  6  1  1  0
  7  2  1  0
  8  2  1  0
  9  4  1  0
 10  1  1  0
 11  4  1  0
M  END
