
     RDKit          3D

 11 10  0  0  0  0  0  0  0  0999 V2000
   -0.2843   -0.6698   -0.0357 C   0  0  0  0  0  0  0  0  0  1  0  0
    0.0094    0.4605   -1.0071 C   0  0  0  0  0  0  0  0  0  2  0  0
    1.2889    1.0078   -0.7529 O   0  0  0  0  0  0  0  0  0  3  0  0
   -0.0440   -0.1695    1.3196 N   0  0  0  0  0  0  0  0  0  4  0  0
    0.4149   -1.4843   -0.2309 H   0  0  0  0  0  0  0  0  0  5  0  0
   -1.2978   -1.0629   -0.1989 H   0  0  0  0  0  0  0  0  0  6  0  0
   -0.7720    1.2296   -0.9159 H   0  0  0  0  0  0  0  0  0  7  0  0
   -0.0106    0.0987   -2.0365 H   0  0  0  0  0  0  0  0  0  8  0  0
    1.3863    0.9463    0.2142 H   0  0  0  0  0  0  0  0  0  9  0  0
   -0.8021    0.4285    1.6214 H   0  0  0  0  0  0  0  0  0 10  0  0
    0.0230   -0.9261    1.9839 H   0  0  0  0  0  0  0  0  0 11  0  0
  2  1  1  0
  3  2  1  0
  4  1  1  0
  5  1  1  0
  6  1  1  0
  7  2  1  0
  8  2  1  0
  9  3  1  0
 10  4  1  0
 11  4  1  0
M  END
