
     RDKit          3D

 11 10  0  0  0  0  0  0  0  0999 V2000
    0.8240   -0.6588   -0.8234 C   0  0  0  0  0  0  0  0  0  1  0  0
   -0.6717    0.2925    0.8312 C   0  0  0  0  0  0  0  0  0  2  0  0
    0.1185    1.3919    1.2511 O   0  0  0  0  0  0  0  0  0  3  0  0
   -0.4489   -0.0048   -0.5621 N   0  0  0  0  0  0  0  0  0  4  0  0
    0.9694   -1.6066   -0.2839 H   0  0  0  0  0  0  0  0  0  5  0  0
    0.9150   -0.8544   -1.8890 H   0  0  0  0  0  0  0  0  0  6  0  0
   -1.7327    0.5102    0.9920 H   0  0  0  0  0  0  0  0  0  7  0  0
   -0.3911   -0.5399    1.4901 H   0  0  0  0  0  0  0  0  0  8  0  0
    1.6321    0.0094   -0.5374 H   0  0  0  0  0  0  0  0  0  9  0  0
   -1.2236   -0.5411   -0.9288 H   0  0  0  0  0  0  0  0  0 10  0  0
    0.0030    2.0790    0.5817 H   0  0  0  0  0  0  0  0  0 11  0  0
  3  2  1  0
  4  2  1  0
  4  1  1  0
  5  1  1  0
  6  1  1  0
  7  2  1  0
  8  2  1  0
  9  1  1  0
 10  4  1  0
 11  3  1  0
M  END
