
     RDKit          3D

 11 10  0  0  0  0  0  0  0  0999 V2000
   -0.5745   -0.2443   -0.2136 C   0  0  0  0  0  0  0  0  0  1  0  0
    0.4864    0.4151   -1.1052 C   0  0  0  0  0  0  0  0  0  2  0  0
    0.0994    0.3904   -2.3448 O   0  0  0  0  0  1  0  0  0  3  0  0
   -0.1062   -0.2099    1.2587 N   0  0  0  0  0  4  0  0  0  4  0  0
   -1.5217    0.2926   -0.2556 H   0  0  0  0  0  0  0  0  0  5  0  0
   -0.7196   -1.2922   -0.4744 H   0  0  0  0  0  0  0  0  0  6  0  0
    1.4695   -0.1330   -0.8593 H   0  0  0  0  0  0  0  0  0  7  0  0
    0.6675    1.4537   -0.6406 H   0  0  0  0  0  0  0  0  0  8  0  0
    0.7881   -0.6925    1.3126 H   0  0  0  0  0  0  0  0  0  9  0  0
    0.0522    0.7629    1.5115 H   0  0  0  0  0  0  0  0  0 10  0  0
   -0.7584   -0.6293    1.9130 H   0  0  0  0  0  0  0  0  0 11  0  0
  2  1  1  0
  3  2  1  0
  4  1  1  0
  5  1  1  0
  6  1  1  0
  7  2  1  0
  8  2  1  0
  9  4  1  0
 10  4  1  0
 11  4  1  0
M  CHG  2   3  -1   4   1
M  END
