
     RDKit          3D

 11 10  0  0  0  0  0  0  0  0999 V2000
    0.0842   -0.5061   -0.4235 C   0  0  0  0  0  0  0  0  0  1  0  0
    0.1024    0.9745   -0.8271 C   0  0  0  0  0  0  0  0  0  2  0  0
    0.3191    1.0815   -2.1032 O   0  0  0  0  0  1  0  0  0  3  0  0
   -0.1731   -0.6249    1.0958 N   0  0  0  0  0  4  0  0  0  4  0  0
   -0.7198   -1.0465   -0.9223 H   0  0  0  0  0  0  0  0  0  5  0  0
    1.0432   -0.9846   -0.6199 H   0  0  0  0  0  0  0  0  0  6  0  0
    0.8739    1.4681   -0.1282 H   0  0  0  0  0  0  0  0  0  7  0  0
   -0.8899    1.4074   -0.4331 H   0  0  0  0  0  0  0  0  0  8  0  0
    0.5603   -0.1090    1.5767 H   0  0  0  0  0  0  0  0  0  9  0  0
   -0.1996   -1.5786    1.4409 H   0  0  0  0  0  0  0  0  0 10  0  0
   -1.0580   -0.1648    1.2979 H   0  0  0  0  0  0  0  0  0 11  0  0
  2  1  1  0
  3  2  1  0
  4  1  1  0
  5  1  1  0
  6  1  1  0
  7  2  1  0
  8  2  1  0
  9  4  1  0
 10  4  1  0
 11  4  1  0
M  CHG  2   3  -1   4   1
M  END
