
     RDKit          3D

 11 10  0  0  0  0  0  0  0  0999 V2000
   -0.1890   -0.6899   -0.0322 C   0  0  0  0  0  0  0  0  0  1  0  0
    0.6761    0.2474   -0.8572 C   0  0  0  0  0  0  0  0  0  2  0  0
    1.4584    1.0678   -0.0110 O   0  0  0  0  0  0  0  0  0  3  0  0
   -0.9145    0.1185    0.9504 N   0  0  0  0  0  0  0  0  0  4  0  0
   -0.8347   -1.2925   -0.6866 H   0  0  0  0  0  0  0  0  0  5  0  0
    0.4635   -1.3800    0.5047 H   0  0  0  0  0  0  0  0  0  6  0  0
    0.0319    0.8564   -1.5088 H   0  0  0  0  0  0  0  0  0  7  0  0
    1.3490   -0.3184   -1.5039 H   0  0  0  0  0  0  0  0  0  8  0  0
    0.8864    1.2278    0.7607 H   0  0  0  0  0  0  0  0  0  9  0  0
   -1.6811    0.6125    0.5126 H   0  0  0  0  0  0  0  0  0 10  0  0
   -1.3072   -0.4562    1.6810 H   0  0  0  0  0  0  0  0  0 11  0  0
  2  1  1  0
  3  2  1  0
  4  1  1  0
  5  1  1  0
  6  1  1  0
  7  2  1  0
  8  2  1  0
  9  3  1  0
 10  4  1  0
 11  4  1  0
M  END
