
     RDKit          3D

 11  8  0  0  0  0  0  0  0  0999 V2000
   -0.8298   -0.0891   -0.1458 C   0  0  0  0  0  0  0  0  0  1  0  0
   -0.0230    0.7017   -1.1469 C   0  0  0  0  0  3  0  0  0  2  0  0
   -0.2987    0.7643   -2.3228 O   0  0  0  0  0  1  0  0  0  3  0  0
   -0.5051    0.2869    1.2239 N   0  0  0  0  0  0  0  0  0  4  0  0
   -1.8863    0.0362   -0.4018 H   0  0  0  0  0  0  0  0  0  5  0  0
   -0.5952   -1.1413   -0.3395 H   0  0  0  0  0  0  0  0  0  6  0  0
    2.3037   -1.2155    0.0034 H   0  0  0  0  0 15  0  0  0  7  0  0
    0.8690    1.2054   -0.7235 H   0  0  0  0  0  0  0  0  0  8  0  0
    2.6082   -0.7365    0.4672 H   0  0  0  0  0 15  0  0  0  9  0  0
   -1.2808    0.7521    1.6698 H   0  0  0  0  0  0  0  0  0 10  0  0
   -0.2684   -0.5168    1.7792 H   0  0  0  0  0  0  0  0  0 11  0  0
  2  1  1  0
  3  2  1  0
  4  1  1  0
  5  1  1  0
  6  1  1  0
  8  2  1  0
 10  4  1  0
 11  4  1  0
M  CHG  4   2  -1   3  -1   7   1   9   1
M  END
