
     RDKit          3D

 11 10  0  0  0  0  0  0  0  0999 V2000
   -0.5633    0.4204   -0.1917 C   0  0  0  0  0  0  0  0  0  1  0  0
    0.6315   -0.2119   -0.8847 C   0  0  0  0  0  0  0  0  0  2  0  0
    0.8000   -1.5484   -0.4533 O   0  0  0  0  0  0  0  0  0  3  0  0
   -0.4070    0.2125    1.2496 N   0  0  0  0  0  0  0  0  0  4  0  0
   -1.4663   -0.0976   -0.5182 H   0  0  0  0  0  0  0  0  0  5  0  0
   -0.6657    1.4741   -0.4878 H   0  0  0  0  0  0  0  0  0  6  0  0
    0.5309   -1.5326    0.4825 H   0  0  0  0  0  0  0  0  0  7  0  0
    0.4918   -0.2161   -1.9670 H   0  0  0  0  0  0  0  0  0  8  0  0
   -1.2719    0.3814    1.7412 H   0  0  0  0  0  0  0  0  0  9  0  0
    0.2834    0.8461    1.6310 H   0  0  0  0  0  0  0  0  0 10  0  0
    1.5312    0.3852   -0.6738 H   0  0  0  0  0  0  0  0  0 11  0  0
  2  1  1  0
  3  2  1  0
  4  1  1  0
  5  1  1  0
  6  1  1  0
  7  3  1  0
  8  2  1  0
  9  4  1  0
 10  4  1  0
 11  2  1  0
M  END
