
     RDKit          3D

 11  9  0  0  0  0  0  0  0  0999 V2000
    0.8265   -1.2322   -0.2546 C   0  0  0  0  0  3  0  0  0  1  0  0
   -1.4056    1.1951   -0.3100 C   0  0  0  0  0  0  0  0  0  2  0  0
   -2.0457    1.1296    0.7206 O   0  0  0  0  0  0  0  0  0  3  0  0
    0.6275   -0.0921    0.4789 N   0  0  0  0  0  4  0  0  0  4  0  0
    1.5252   -1.3638   -1.0712 H   0  0  0  0  0  0  0  0  0  5  0  0
    0.4399   -2.2140   -0.0151 H   0  0  0  0  0  0  0  0  0  6  0  0
   -1.4967    0.4383   -1.1258 H   0  0  0  0  0  0  0  0  0  7  0  0
   -0.8211    2.1032   -0.5618 H   0  0  0  0  0  0  0  0  0  8  0  0
    0.4708   -0.2718    0.1101 H   0  0  0  0  0  0  0  0  0  9  0  0
    1.4676    0.4538    0.6461 H   0  0  0  0  0  0  0  0  0 10  0  0
    0.3170   -0.2413    1.4372 H   0  0  0  0  0  0  0  0  0 11  0  0
  3  2  2  0
  4  1  1  0
  5  1  1  0
  6  1  1  0
  7  2  1  0
  8  2  1  0
  9  4  1  0
 10  4  1  0
 11  4  1  0
M  CHG  2   1  -1   4   1
M  END
