
     RDKit          3D

 11 10  0  0  0  0  0  0  0  0999 V2000
    0.2272   -0.5649   -0.3580 C   0  0  0  0  0  0  0  0  0  1  0  0
   -0.9179    0.4253   -0.4837 C   0  0  0  0  0  0  0  0  0  2  0  0
   -1.4884    0.6816    0.7852 O   0  0  0  0  0  0  0  0  0  3  0  0
    1.1342   -0.0714    0.6808 N   0  0  0  0  0  0  0  0  0  4  0  0
    0.7045   -0.7263   -1.3349 H   0  0  0  0  0  0  0  0  0  5  0  0
   -0.1790   -1.5238   -0.0328 H   0  0  0  0  0  0  0  0  0  6  0  0
   -1.6981    0.0313   -1.1371 H   0  0  0  0  0  0  0  0  0  7  0  0
   -0.5459    1.3538   -0.9419 H   0  0  0  0  0  0  0  0  0  8  0  0
    1.6948    0.6954    0.3329 H   0  0  0  0  0  0  0  0  0  9  0  0
    1.7704   -0.7928    0.9861 H   0  0  0  0  0  0  0  0  0 10  0  0
   -0.7330    0.6419    1.3984 H   0  0  0  0  0  0  0  0  0 11  0  0
  2  1  1  0
  3  2  1  0
  4  1  1  0
  5  1  1  0
  6  1  1  0
  7  2  1  0
  8  2  1  0
  9  4  1  0
 10  4  1  0
 11  3  1  0
M  END
