
     RDKit          3D

 11 10  0  0  0  0  0  0  0  0999 V2000
   -0.5647    0.1110   -1.2338 C   0  0  0  0  0  0  0  0  0  1  0  0
    0.8393   -0.1286   -1.5356 C   0  0  0  0  0  0  0  0  0  2  0  0
    0.1371   -0.9741   -0.6164 O   0  0  0  0  0  0  0  0  0  3  0  0
   -0.2378    0.3222    2.2814 N   0  0  0  0  0  0  0  0  0  4  0  0
   -1.3236   -0.1866   -1.9501 H   0  0  0  0  0  0  0  0  0  5  0  0
   -0.8426    0.9231   -0.5714 H   0  0  0  0  0  0  0  0  0  6  0  0
   -0.0592   -0.3630    1.5551 H   0  0  0  0  0  0  0  0  0  7  0  0
    1.1166   -0.5971   -2.4737 H   0  0  0  0  0  0  0  0  0  8  0  0
   -1.0757    0.0237    2.7619 H   0  0  0  0  0  0  0  0  0  9  0  0
    0.5196    0.2466    2.9472 H   0  0  0  0  0  0  0  0  0 10  0  0
    1.5965    0.5096   -1.0924 H   0  0  0  0  0  0  0  0  0 11  0  0
  2  1  1  0
  3  2  1  0
  3  1  1  0
  5  1  1  0
  6  1  1  0
  7  4  1  0
  8  2  1  0
  9  4  1  0
 10  4  1  0
 11  2  1  0
M  END
