
     RDKit          3D

 11 10  0  0  0  0  0  0  0  0999 V2000
   -0.8645   -0.4828   -0.9324 C   0  0  0  0  0  0  0  0  0  1  0  0
    0.2358    0.0223   -1.7408 C   0  0  0  0  0  0  0  0  0  2  0  0
   -0.3525    0.8378   -0.7201 O   0  0  0  0  0  0  0  0  0  3  0  0
    0.5948    0.0835    2.2388 N   0  0  0  0  0  0  0  0  0  4  0  0
   -0.6674   -1.1925   -0.1368 H   0  0  0  0  0  0  0  0  0  5  0  0
   -1.8636   -0.5212   -1.3541 H   0  0  0  0  0  0  0  0  0  6  0  0
    1.4701    0.4604    2.5771 H   0  0  0  0  0  0  0  0  0  7  0  0
    1.2462   -0.3168   -1.5382 H   0  0  0  0  0  0  0  0  0  8  0  0
   -0.0960    0.2703    2.9531 H   0  0  0  0  0  0  0  0  0  9  0  0
    0.3318    0.6347    1.4287 H   0  0  0  0  0  0  0  0  0 10  0  0
    0.0508    0.3514   -2.7577 H   0  0  0  0  0  0  0  0  0 11  0  0
  2  1  1  0
  3  2  1  0
  3  1  1  0
  5  1  1  0
  6  1  1  0
  7  4  1  0
  8  2  1  0
  9  4  1  0
 10  4  1  0
 11  2  1  0
M  END
