
     RDKit          3D

 11 10  0  0  0  0  0  0  0  0999 V2000
   -0.5681   -0.2568   -0.2153 C   0  0  0  0  0  0  0  0  0  1  0  0
    0.4853    0.4174   -1.1050 C   0  0  0  0  0  0  0  0  0  2  0  0
    0.0929    0.4038   -2.3430 O   0  0  0  0  0  1  0  0  0  3  0  0
   -0.0924   -0.2369    1.2548 N   0  0  0  0  0  4  0  0  0  4  0  0
   -1.5177    0.2763   -0.2474 H   0  0  0  0  0  0  0  0  0  5  0  0
   -0.7095   -1.3026   -0.4864 H   0  0  0  0  0  0  0  0  0  6  0  0
    1.4726   -0.1279   -0.8692 H   0  0  0  0  0  0  0  0  0  7  0  0
    0.6629    1.4520   -0.6301 H   0  0  0  0  0  0  0  0  0  8  0  0
    0.8041   -0.7163    1.2974 H   0  0  0  0  0  0  0  0  0  9  0  0
    0.0633    0.7333    1.5191 H   0  0  0  0  0  0  0  0  0 10  0  0
   -0.7393   -0.6671    1.9073 H   0  0  0  0  0  0  0  0  0 11  0  0
  2  1  1  0
  3  2  1  0
  4  1  1  0
  5  1  1  0
  6  1  1  0
  7  2  1  0
  8  2  1  0
  9  4  1  0
 10  4  1  0
 11  4  1  0
M  CHG  2   3  -1   4   1
M  END
