
     RDKit          3D

 11 10  0  0  0  0  0  0  0  0999 V2000
   -0.4433   -0.5744    0.0669 C   0  0  0  0  0  0  0  0  0  1  0  0
    0.2292    0.1778   -1.0687 C   0  0  0  0  0  0  0  0  0  2  0  0
    0.1188    1.5736   -0.8676 O   0  0  0  0  0  0  0  0  0  3  0  0
    0.0875   -0.0507    1.3274 N   0  0  0  0  0  0  0  0  0  4  0  0
   -0.3151   -1.6585   -0.0617 H   0  0  0  0  0  0  0  0  0  5  0  0
   -1.5140   -0.3677    0.0320 H   0  0  0  0  0  0  0  0  0  6  0  0
    1.0181   -0.4074    1.5008 H   0  0  0  0  0  0  0  0  0  7  0  0
    1.2842   -0.1276   -1.1317 H   0  0  0  0  0  0  0  0  0  8  0  0
   -0.4880   -0.3234    2.1101 H   0  0  0  0  0  0  0  0  0  9  0  0
    0.1741    1.6799    0.0989 H   0  0  0  0  0  0  0  0  0 10  0  0
   -0.2370   -0.0688   -2.0240 H   0  0  0  0  0  0  0  0  0 11  0  0
  2  1  1  0
  3  2  1  0
  4  1  1  0
  5  1  1  0
  6  1  1  0
  7  4  1  0
  8  2  1  0
  9  4  1  0
 10  3  1  0
 11  2  1  0
M  END
