
     RDKit          3D

 11 10  0  0  0  0  0  0  0  0999 V2000
    0.7016    0.1462   -0.1181 C   0  0  0  0  0  0  0  0  0  1  0  0
   -0.5242   -0.1406   -0.9685 C   0  0  0  0  0  0  0  0  0  2  0  0
   -1.6402    0.5797   -0.4818 O   0  0  0  0  0  0  0  0  0  3  0  0
    0.3371   -0.0775    1.2828 N   0  0  0  0  0  0  0  0  0  4  0  0
    0.9694    1.1967   -0.2401 H   0  0  0  0  0  0  0  0  0  5  0  0
    1.5573   -0.4515   -0.4632 H   0  0  0  0  0  0  0  0  0  6  0  0
   -0.7229   -1.2227   -0.9649 H   0  0  0  0  0  0  0  0  0  7  0  0
   -0.3520    0.1541   -2.0051 H   0  0  0  0  0  0  0  0  0  8  0  0
    1.0153    0.3308    1.9086 H   0  0  0  0  0  0  0  0  0  9  0  0
    0.2953   -1.0669    1.4898 H   0  0  0  0  0  0  0  0  0 10  0  0
   -1.5129    0.5925    0.4837 H   0  0  0  0  0  0  0  0  0 11  0  0
  2  1  1  0
  3  2  1  0
  4  1  1  0
  5  1  1  0
  6  1  1  0
  7  2  1  0
  8  2  1  0
  9  4  1  0
 10  4  1  0
 11  3  1  0
M  END
