
     RDKit          3D

 11 10  0  0  0  0  0  0  0  0999 V2000
    0.6681    0.3663   -1.5471 C   0  0  0  0  0  0  0  0  0  1  0  0
    0.1773   -0.8557   -0.9174 C   0  0  0  0  0  0  0  0  0  2  0  0
    0.6234   -0.8641   -2.2719 O   0  0  0  0  0  0  0  0  0  3  0  0
   -0.7934    0.1981    2.1371 N   0  0  0  0  0  0  0  0  0  4  0  0
    1.6635    0.7330   -1.3133 H   0  0  0  0  0  0  0  0  0  5  0  0
   -0.0374    1.1262   -1.8701 H   0  0  0  0  0  0  0  0  0  6  0  0
   -0.8898   -0.9923   -0.7694 H   0  0  0  0  0  0  0  0  0  7  0  0
    0.8080   -1.3842   -0.2075 H   0  0  0  0  0  0  0  0  0  8  0  0
   -1.6636    0.7081    2.2060 H   0  0  0  0  0  0  0  0  0  9  0  0
   -0.2018    0.7200    1.5029 H   0  0  0  0  0  0  0  0  0 10  0  0
   -0.3564    0.2428    3.0479 H   0  0  0  0  0  0  0  0  0 11  0  0
  2  1  1  0
  3  2  1  0
  3  1  1  0
  5  1  1  0
  6  1  1  0
  7  2  1  0
  8  2  1  0
  9  4  1  0
 10  4  1  0
 11  4  1  0
M  END
