
     RDKit          3D

 11 10  0  0  0  0  0  0  0  0999 V2000
    0.5965    0.4598   -1.1274 C   0  0  0  0  0  0  0  0  0  1  0  0
   -0.5803   -0.2246   -1.6436 C   0  0  0  0  0  0  0  0  0  2  0  0
   -0.6978    0.7188   -0.5716 O   0  0  0  0  0  0  0  0  0  3  0  0
    0.2019   -0.4331    2.2699 N   0  0  0  0  0  0  0  0  0  4  0  0
    1.0243    1.2846   -1.6881 H   0  0  0  0  0  0  0  0  0  5  0  0
    1.2854   -0.0685   -0.4780 H   0  0  0  0  0  0  0  0  0  6  0  0
   -0.7575   -1.2598   -1.3718 H   0  0  0  0  0  0  0  0  0  7  0  0
   -1.0172    0.0904   -2.5852 H   0  0  0  0  0  0  0  0  0  8  0  0
    0.6156    0.2558    2.8834 H   0  0  0  0  0  0  0  0  0  9  0  0
   -0.4745   -0.9432    2.8223 H   0  0  0  0  0  0  0  0  0 10  0  0
   -0.3201    0.0792    1.5670 H   0  0  0  0  0  0  0  0  0 11  0  0
  2  1  1  0
  3  2  1  0
  3  1  1  0
  5  1  1  0
  6  1  1  0
  7  2  1  0
  8  2  1  0
  9  4  1  0
 10  4  1  0
 11  4  1  0
M  END
