
     RDKit          3D

 11  9  0  0  0  0  0  0  0  0999 V2000
   -0.6050   -1.2980    0.4901 C   0  0  0  0  0  3  0  0  0  1  0  0
    1.0283    1.0555   -1.1439 C   0  0  0  0  0  0  0  0  0  2  0  0
    1.8877    1.4883   -0.4021 O   0  0  0  0  0  0  0  0  0  3  0  0
   -0.4736    0.0583    0.6342 N   0  0  0  0  0  4  0  0  0  4  0  0
   -1.4302   -1.8240    0.0268 H   0  0  0  0  0  0  0  0  0  5  0  0
    0.0116   -2.0473    0.9684 H   0  0  0  0  0  0  0  0  0  6  0  0
    0.2340    1.7176   -1.5441 H   0  0  0  0  0  0  0  0  0  7  0  0
    1.0777    0.0348   -1.5937 H   0  0  0  0  0  0  0  0  0  8  0  0
    0.0713    0.3581    1.4406 H   0  0  0  0  0  0  0  0  0  9  0  0
   -0.3731   -0.2472    0.3351 H   0  0  0  0  0  0  0  0  0 10  0  0
   -1.3441    0.5498    0.8140 H   0  0  0  0  0  0  0  0  0 11  0  0
  3  2  2  0
  4  1  1  0
  5  1  1  0
  6  1  1  0
  7  2  1  0
  8  2  1  0
  9  4  1  0
 10  4  1  0
 11  4  1  0
M  CHG  2   1  -1   4   1
M  END
