
     RDKit          3D

 11  9  0  0  0  0  0  0  0  0999 V2000
    0.9322   -0.7605   -1.1560 C   0  0  0  0  0  0  0  0  0  1  0  0
   -0.9005    0.6225    1.7851 C   0  0  0  0  0  0  0  0  0  2  0  0
   -0.7093    1.8177    1.8622 O   0  0  0  0  0  0  0  0  0  3  0  0
   -0.1020    0.1057   -0.5991 N   0  0  0  0  0  0  0  0  0  4  0  0
    0.6710   -1.8039   -0.9867 H   0  0  0  0  0  0  0  0  0  5  0  0
    1.1118   -0.6274   -2.2284 H   0  0  0  0  0  0  0  0  0  6  0  0
   -1.8743    0.1969    1.4696 H   0  0  0  0  0  0  0  0  0  7  0  0
   -0.1525   -0.1174    2.1318 H   0  0  0  0  0  0  0  0  0  8  0  0
    1.8726   -0.5814   -0.6369 H   0  0  0  0  0  0  0  0  0  9  0  0
   -0.9871   -0.0125   -1.0725 H   0  0  0  0  0  0  0  0  0 10  0  0
    0.1442    1.0830   -0.6910 H   0  0  0  0  0  0  0  0  0 11  0  0
  3  2  2  0
  4  1  1  0
  5  1  1  0
  6  1  1  0
  7  2  1  0
  8  2  1  0
  9  1  1  0
 10  4  1  0
 11  4  1  0
M  END
