
     RDKit          3D

 12 10  0  0  0  0  0  0  0  0999 V2000
    0.0831    1.3888   -3.1734 C   0  0  0  0  0  3  0  0  0  1  0  0
   -0.6850    0.6012   -2.8963 O   0  0  0  0  0  3  0  0  0  2  0  0
    0.5307    1.3030    1.2918 O   0  0  0  0  0  0  0  0  0  3  0  0
    0.8748    0.1381    0.5633 C   0  0  0  0  0  0  0  0  0  4  0  0
   -0.1331   -0.9738    0.7811 C   0  0  0  0  0  0  0  0  0  5  0  0
   -1.4653   -0.5151    0.5299 O   0  0  0  0  0  0  0  0  0  6  0  0
    1.8658   -0.1799    0.8934 H   0  0  0  0  0  0  0  0  0  7  0  0
    0.9433    0.3554   -0.5103 H   0  0  0  0  0  0  0  0  0  8  0  0
   -0.4319    1.3765    1.2189 H   0  0  0  0  0  0  0  0  0  9  0  0
    0.1139   -1.8414    0.1585 H   0  0  0  0  0  0  0  0  0 10  0  0
   -0.1272   -1.2904    1.8231 H   0  0  0  0  0  0  0  0  0 11  0  0
   -1.5841   -0.4230   -0.4218 H   0  0  0  0  0  0  0  0  0 12  0  0
  2  1  3  0
  4  3  1  0
  5  4  1  0
  6  5  1  0
  7  4  1  0
  8  4  1  0
  9  3  1  0
 10  5  1  0
 11  5  1  0
 12  6  1  0
M  CHG  2   1  -1   2   1
M  END
