
     RDKit          3D

 12 11  0  0  0  0  0  0  0  0999 V2000
    0.3831    0.7033   -1.2536 C   0  0  0  0  0  0  0  0  0  1  0  0
   -0.3326    0.1403   -2.0538 O   0  0  0  0  0  0  0  0  0  2  0  0
    0.5662    1.2835    1.0536 O   0  0  0  0  0  0  0  0  0  3  0  0
    0.6930    0.1981    0.1426 C   0  0  1  0  0  0  0  0  0  4  0  0
   -0.1847   -0.9790    0.5306 C   0  0  0  0  0  0  0  0  0  5  0  0
   -1.5504   -0.5763    0.6069 O   0  0  0  0  0  0  0  0  0  6  0  0
    1.7509   -0.0921    0.1574 H   0  0  0  0  0  0  0  0  0  7  0  0
    0.8617    1.6731   -1.4924 H   0  0  0  0  0  0  0  0  0  8  0  0
   -0.3770    1.3296    1.2713 H   0  0  0  0  0  0  0  0  0  9  0  0
   -0.0499   -1.8015   -0.1742 H   0  0  0  0  0  0  0  0  0 10  0  0
    0.0942   -1.3246    1.5243 H   0  0  0  0  0  0  0  0  0 11  0  0
   -1.8571   -0.4467   -0.3015 H   0  0  0  0  0  0  0  0  0 12  0  0
  2  1  2  0
  4  3  1  0
  4  1  1  0
  5  4  1  0
  6  5  1  0
  4  7  1  6
  8  1  1  0
  9  3  1  0
 10  5  1  0
 11  5  1  0
 12  6  1  0
M  END
