
     RDKit          3D

 12 11  0  0  0  0  0  0  0  0999 V2000
    1.9832   -1.2598   -0.7324 O   0  0  0  0  0  0  0  0  0  1  0  0
    1.6954   -0.4651    0.1310 C   0  0  0  0  0  0  0  0  0  2  0  0
    0.2722   -0.1144    0.5137 C   0  0  1  0  0  0  0  0  0  3  0  0
    0.2750    1.1705    1.1103 O   0  0  0  0  0  0  0  0  0  4  0  0
   -0.6724   -0.1772   -0.6707 C   0  0  0  0  0  0  0  0  0  5  0  0
   -1.9388    0.2579   -0.1655 O   0  0  0  0  0  0  0  0  0  6  0  0
    2.4692    0.0562    0.7308 H   0  0  0  0  0  0  0  0  0  7  0  0
   -0.0483   -0.8745    1.2453 H   0  0  0  0  0  0  0  0  0  8  0  0
   -0.6535    1.4418    1.1355 H   0  0  0  0  0  0  0  0  0  9  0  0
   -0.3126    0.4932   -1.4553 H   0  0  0  0  0  0  0  0  0 10  0  0
   -0.7136   -1.1927   -1.0674 H   0  0  0  0  0  0  0  0  0 11  0  0
   -2.5212    0.4413   -0.9085 H   0  0  0  0  0  0  0  0  0 12  0  0
  2  1  2  0
  3  2  1  0
  4  3  1  0
  5  3  1  0
  6  5  1  0
  7  2  1  0
  3  8  1  1
  9  4  1  0
 10  5  1  0
 11  5  1  0
 12  6  1  0
M  END
