
     RDKit          3D

 12 10  0  0  0  0  0  0  0  0999 V2000
    1.7252    0.3342    0.3428 O   0  0  0  0  0  0  0  0  0  1  0  0
    1.3992   -0.8491    0.4257 C   0  0  0  0  0  0  0  0  0  2  0  0
    0.0851   -1.4014    0.2210 C   0  0  0  0  0  0  0  0  0  3  0  0
    0.1397    2.5362   -0.3919 O   0  0  0  0  0  0  0  0  0  4  0  0
   -0.9732   -0.6327   -0.0990 C   0  0  0  0  0  0  0  0  0  5  0  0
   -2.1856   -1.1759   -0.2830 O   0  0  0  0  0  0  0  0  0  6  0  0
    2.1746   -1.5935    0.6839 H   0  0  0  0  0  0  0  0  0  7  0  0
   -0.0476   -2.4698    0.3301 H   0  0  0  0  0  0  0  0  0  8  0  0
    0.5706    3.3960   -0.3735 H   0  0  0  0  0  0  0  0  0  9  0  0
    0.8370    1.9015   -0.1279 H   0  0  0  0  0  0  0  0  0 10  0  0
   -0.8940    0.4447   -0.2203 H   0  0  0  0  0  0  0  0  0 11  0  0
   -2.8283   -0.4917   -0.5078 H   0  0  0  0  0  0  0  0  0 12  0  0
  2  1  2  0
  3  2  1  0
  5  3  2  0
  6  5  1  0
  7  2  1  0
  8  3  1  0
  9  4  1  0
 10  4  1  0
 11  5  1  0
 12  6  1  0
M  END
