
     RDKit          3D

 16 15  0  0  0  0  0  0  0  0999 V2000
   -1.8130   -0.3136    0.0337 C   0  0  0  0  0  0  0  0  0  1  0  0
   -0.4038    0.1383    0.3559 C   0  0  1  0  0  0  0  0  0  2  0  0
    0.0974    0.2525   -1.9456 O   0  0  0  0  0  0  0  0  0  3  0  0
    0.0917   -0.3766    1.6225 N   0  0  0  0  0  0  0  0  0  4  0  0
    1.8956    0.1304   -0.4703 C   0  0  0  0  0  0  0  0  0  5  0  0
    0.5263   -0.2970   -0.6993 N   0  0  0  0  0  0  0  0  0  6  0  0
   -2.1481    0.0833   -0.9189 H   0  0  0  0  0  0  0  0  0  7  0  0
   -1.8565   -1.4008   -0.0218 H   0  0  0  0  0  0  0  0  0  8  0  0
   -2.4944    0.0250    0.8131 H   0  0  0  0  0  0  0  0  0  9  0  0
   -0.3807    1.2384    0.4116 H   0  0  0  0  0  0  0  0  0 10  0  0
   -0.4906   -0.0231    2.3695 H   0  0  0  0  0  0  0  0  0 11  0  0
    2.2249   -0.2763    0.4805 H   0  0  0  0  0  0  0  0  0 12  0  0
    2.5168   -0.2528   -1.2747 H   0  0  0  0  0  0  0  0  0 13  0  0
    2.0028    1.2280   -0.4277 H   0  0  0  0  0  0  0  0  0 14  0  0
   -0.0204   -1.3849    1.6209 H   0  0  0  0  0  0  0  0  0 15  0  0
    0.2488    1.2155   -1.8913 H   0  0  0  0  0  0  0  0  0 16  0  0
  2  1  1  0
  4  2  1  0
  6  5  1  0
  6  3  1  0
  6  2  1  0
  7  1  1  0
  8  1  1  0
  9  1  1  0
  2 10  1  1
 11  4  1  0
 12  5  1  0
 13  5  1  0
 14  5  1  0
 15  4  1  0
 16  3  1  0
M  END
