
     RDKit          3D

 16 15  0  0  0  0  0  0  0  0999 V2000
    1.5308   -0.6937   -0.8081 C   0  0  0  0  0  0  0  0  0  1  0  0
    0.2308   -0.0021   -0.4367 C   0  0  1  0  0  0  0  0  0  2  0  0
    0.2555    1.3472   -0.9419 O   0  0  0  0  0  0  0  0  0  3  0  0
   -0.8846   -0.7060   -1.0360 N   0  0  0  0  0  0  0  0  0  4  0  0
   -1.1315    0.5526    1.5337 C   0  0  0  0  0  0  0  0  0  5  0  0
    0.1319    0.0508    1.0094 N   0  0  0  0  0  0  0  0  0  6  0  0
    2.3646   -0.2424   -0.2732 H   0  0  0  0  0  0  0  0  0  7  0  0
    1.4797   -1.7516   -0.5556 H   0  0  0  0  0  0  0  0  0  8  0  0
    1.7095   -0.6002   -1.8781 H   0  0  0  0  0  0  0  0  0  9  0  0
   -0.7220   -0.7735   -2.0347 H   0  0  0  0  0  0  0  0  0 10  0  0
   -1.7175   -0.1372   -0.9221 H   0  0  0  0  0  0  0  0  0 11  0  0
   -1.9889   -0.1113    1.3678 H   0  0  0  0  0  0  0  0  0 12  0  0
   -1.0286    0.7090    2.6059 H   0  0  0  0  0  0  0  0  0 13  0  0
   -1.3547    1.5148    1.0790 H   0  0  0  0  0  0  0  0  0 14  0  0
    0.3084   -0.8791    1.3690 H   0  0  0  0  0  0  0  0  0 15  0  0
    0.8697    1.8347   -0.3762 H   0  0  0  0  0  0  0  0  0 16  0  0
  2  1  1  0
  2  3  1  6
  4  2  1  0
  6  5  1  0
  6  2  1  0
  7  1  1  0
  8  1  1  0
  9  1  1  0
 10  4  1  0
 11  4  1  0
 12  5  1  0
 13  5  1  0
 14  5  1  0
 15  6  1  0
 16  3  1  0
M  END
