
     RDKit          3D

 16 15  0  0  0  0  0  0  0  0999 V2000
    1.5346   -0.7652   -0.7878 C   0  0  0  0  0  0  0  0  0  1  0  0
    0.2332   -0.0325   -0.5169 C   0  0  1  0  0  0  0  0  0  2  0  0
    0.1994    1.1922   -1.2374 O   0  0  0  0  0  0  0  0  0  3  0  0
   -0.8713   -0.8102   -1.0583 N   0  0  0  0  0  0  0  0  0  4  0  0
   -1.0959    0.7963    1.3942 C   0  0  0  0  0  0  0  0  0  5  0  0
    0.1770    0.2868    0.9131 N   0  0  0  0  0  0  0  0  0  6  0  0
    2.3798   -0.2009   -0.3956 H   0  0  0  0  0  0  0  0  0  7  0  0
    1.5218   -1.7479   -0.3141 H   0  0  0  0  0  0  0  0  0  8  0  0
    1.6559   -0.9031   -1.8578 H   0  0  0  0  0  0  0  0  0  9  0  0
   -0.9948   -1.6576   -0.5166 H   0  0  0  0  0  0  0  0  0 10  0  0
   -1.7297   -0.2745   -0.9988 H   0  0  0  0  0  0  0  0  0 11  0  0
   -1.4078    1.6400    0.7823 H   0  0  0  0  0  0  0  0  0 12  0  0
   -1.9118    0.0602    1.3913 H   0  0  0  0  0  0  0  0  0 13  0  0
   -0.9784    1.1587    2.4143 H   0  0  0  0  0  0  0  0  0 14  0  0
    0.4635   -0.5237    1.4476 H   0  0  0  0  0  0  0  0  0 15  0  0
    0.8141    1.7850   -0.7853 H   0  0  0  0  0  0  0  0  0 16  0  0
  2  1  1  0
  2  3  1  6
  4  2  1  0
  6  5  1  0
  6  2  1  0
  7  1  1  0
  8  1  1  0
  9  1  1  0
 10  4  1  0
 11  4  1  0
 12  5  1  0
 13  5  1  0
 14  5  1  0
 15  6  1  0
 16  3  1  0
M  END
