
     RDKit          3D

 16 15  0  0  0  0  0  0  0  0999 V2000
    1.4731   -0.7787   -0.8531 C   0  0  0  0  0  0  0  0  0  1  0  0
    0.2144   -0.0136   -0.4864 C   0  0  1  0  0  0  0  0  0  2  0  0
    0.3473    1.3749   -0.8517 O   0  0  0  0  0  0  0  0  0  3  0  0
   -0.8870   -0.4928   -1.2888 N   0  0  0  0  0  0  0  0  0  4  0  0
   -1.1483    0.5503    1.4923 C   0  0  0  0  0  0  0  0  0  5  0  0
   -0.0367   -0.2051    0.9358 N   0  0  0  0  0  0  0  0  0  6  0  0
    2.3414   -0.3916   -0.3142 H   0  0  0  0  0  0  0  0  0  7  0  0
    1.3498   -1.8278   -0.5946 H   0  0  0  0  0  0  0  0  0  8  0  0
    1.6535   -0.6963   -1.9211 H   0  0  0  0  0  0  0  0  0  9  0  0
   -1.1996   -1.3735   -0.8993 H   0  0  0  0  0  0  0  0  0 10  0  0
   -1.6535    0.1683   -1.2330 H   0  0  0  0  0  0  0  0  0 11  0  0
   -2.0905    0.1567    1.1123 H   0  0  0  0  0  0  0  0  0 12  0  0
   -1.1591    0.4140    2.5721 H   0  0  0  0  0  0  0  0  0 13  0  0
   -1.1214    1.6240    1.2793 H   0  0  0  0  0  0  0  0  0 14  0  0
    0.8108   -0.0124    1.4551 H   0  0  0  0  0  0  0  0  0 15  0  0
    1.1974    1.6854   -0.5172 H   0  0  0  0  0  0  0  0  0 16  0  0
  2  1  1  0
  2  3  1  1
  4  2  1  0
  6  5  1  0
  6  2  1  0
  7  1  1  0
  8  1  1  0
  9  1  1  0
 10  4  1  0
 11  4  1  0
 12  5  1  0
 13  5  1  0
 14  5  1  0
 15  6  1  0
 16  3  1  0
M  END
