
     RDKit          3D

 16 14  0  0  0  0  0  0  0  0999 V2000
    1.4893   -1.0261   -1.1641 C   0  0  0  0  0  0  0  0  0  1  0  0
    0.4326   -0.0333   -1.5643 C   0  0  0  0  0  0  0  0  0  2  0  0
    0.6464    1.1678   -1.6634 O   0  0  0  0  0  0  0  0  0  3  0  0
   -0.7975   -0.5704   -1.8216 N   0  0  0  0  0  0  0  0  0  4  0  0
   -1.1856    0.7105    1.9265 C   0  0  0  0  0  0  0  0  0  5  0  0
    0.2374    0.6268    1.6207 N   0  0  0  0  0  0  0  0  0  6  0  0
    2.4676   -0.5970   -1.3527 H   0  0  0  0  0  0  0  0  0  7  0  0
    1.3931   -1.2127   -0.0949 H   0  0  0  0  0  0  0  0  0  8  0  0
    1.3965   -1.9733   -1.6942 H   0  0  0  0  0  0  0  0  0  9  0  0
   -1.0292   -1.4903   -1.4890 H   0  0  0  0  0  0  0  0  0 10  0  0
   -1.5574    0.0807   -1.9162 H   0  0  0  0  0  0  0  0  0 11  0  0
   -1.7726    0.5130    1.0298 H   0  0  0  0  0  0  0  0  0 12  0  0
   -1.4506   -0.0584    2.6521 H   0  0  0  0  0  0  0  0  0 13  0  0
   -1.5166    1.6759    2.3313 H   0  0  0  0  0  0  0  0  0 14  0  0
    0.7873    0.8872    2.4291 H   0  0  0  0  0  0  0  0  0 15  0  0
    0.4699    1.2956    0.8967 H   0  0  0  0  0  0  0  0  0 16  0  0
  2  1  1  0
  3  2  2  0
  4  2  1  0
  6  5  1  0
  7  1  1  0
  8  1  1  0
  9  1  1  0
 10  4  1  0
 11  4  1  0
 12  5  1  0
 13  5  1  0
 14  5  1  0
 15  6  1  0
 16  6  1  0
M  END
