
     RDKit          3D

 16 14  0  0  0  0  0  0  0  0999 V2000
    1.5325   -0.7725   -1.3245 C   0  0  0  0  0  0  0  0  0  1  0  0
    0.4933    0.2933   -1.5409 C   0  0  0  0  0  0  0  0  0  2  0  0
    0.7157    1.4867   -1.3838 O   0  0  0  0  0  0  0  0  0  3  0  0
   -0.7307   -0.1661   -1.9395 N   0  0  0  0  0  0  0  0  0  4  0  0
   -1.2520    0.3153    1.9757 C   0  0  0  0  0  0  0  0  0  5  0  0
    0.1799    0.2831    1.7042 N   0  0  0  0  0  0  0  0  0  6  0  0
    2.5179   -0.3224   -1.3782 H   0  0  0  0  0  0  0  0  0  7  0  0
    1.3940   -1.1868   -0.3263 H   0  0  0  0  0  0  0  0  0  8  0  0
    1.4593   -1.5810   -2.0511 H   0  0  0  0  0  0  0  0  0  9  0  0
   -0.9764   -1.1320   -1.8091 H   0  0  0  0  0  0  0  0  0 10  0  0
   -1.4846    0.4985   -1.9177 H   0  0  0  0  0  0  0  0  0 11  0  0
   -1.5406   -0.5785    2.5282 H   0  0  0  0  0  0  0  0  0 12  0  0
   -1.5956    1.1852    2.5508 H   0  0  0  0  0  0  0  0  0 13  0  0
   -1.8098    0.3004    1.0396 H   0  0  0  0  0  0  0  0  0 14  0  0
    0.7038    0.3662    2.5658 H   0  0  0  0  0  0  0  0  0 15  0  0
    0.4384    1.0838    1.1408 H   0  0  0  0  0  0  0  0  0 16  0  0
  2  1  1  0
  3  2  2  0
  4  2  1  0
  6  5  1  0
  7  1  1  0
  8  1  1  0
  9  1  1  0
 10  4  1  0
 11  4  1  0
 12  5  1  0
 13  5  1  0
 14  5  1  0
 15  6  1  0
 16  6  1  0
M  END
