
     RDKit          3D

 16 15  0  0  0  0  0  0  0  0999 V2000
    1.5334   -0.6665   -0.8319 C   0  0  0  0  0  0  0  0  0  1  0  0
    0.2291    0.0089   -0.4465 C   0  0  1  0  0  0  0  0  0  2  0  0
    0.2418    1.3655   -0.9321 O   0  0  0  0  0  0  0  0  0  3  0  0
   -0.8831   -0.6945   -1.0523 N   0  0  0  0  0  0  0  0  0  4  0  0
   -1.1298    0.5210    1.5389 C   0  0  0  0  0  0  0  0  0  5  0  0
    0.1356    0.0397    1.0005 N   0  0  0  0  0  0  0  0  0  6  0  0
    2.3655   -0.2112   -0.2977 H   0  0  0  0  0  0  0  0  0  7  0  0
    1.4948   -1.7269   -0.5881 H   0  0  0  0  0  0  0  0  0  8  0  0
    1.7052   -0.5619   -1.9019 H   0  0  0  0  0  0  0  0  0  9  0  0
   -0.7234   -0.7449   -2.0525 H   0  0  0  0  0  0  0  0  0 10  0  0
   -1.7198   -0.1335   -0.9276 H   0  0  0  0  0  0  0  0  0 11  0  0
   -1.9815   -0.1490    1.3675 H   0  0  0  0  0  0  0  0  0 12  0  0
   -1.0232    0.6617    2.6131 H   0  0  0  0  0  0  0  0  0 13  0  0
   -1.3651    1.4879    1.1007 H   0  0  0  0  0  0  0  0  0 14  0  0
    0.3230   -0.8936    1.3453 H   0  0  0  0  0  0  0  0  0 15  0  0
    0.8587    1.8481   -0.3650 H   0  0  0  0  0  0  0  0  0 16  0  0
  2  1  1  0
  2  3  1  6
  4  2  1  0
  6  5  1  0
  6  2  1  0
  7  1  1  0
  8  1  1  0
  9  1  1  0
 10  4  1  0
 11  4  1  0
 12  5  1  0
 13  5  1  0
 14  5  1  0
 15  6  1  0
 16  3  1  0
M  END
