
     RDKit          3D

 16 15  0  0  0  0  0  0  0  0999 V2000
    1.5417   -0.6363   -0.8667 C   0  0  0  0  0  0  0  0  0  1  0  0
    0.2590    0.0791   -0.4850 C   0  0  1  0  0  0  0  0  0  2  0  0
    0.3226    1.4447   -0.8735 O   0  0  0  0  0  0  0  0  0  3  0  0
   -0.8414   -0.4740   -1.2600 N   0  0  0  0  0  0  0  0  0  4  0  0
   -1.1478    0.4815    1.5057 C   0  0  0  0  0  0  0  0  0  5  0  0
    0.1282    0.0334    0.9746 N   0  0  0  0  0  0  0  0  0  6  0  0
    2.3851   -0.2322   -0.3084 H   0  0  0  0  0  0  0  0  0  7  0  0
    1.4596   -1.7024   -0.6503 H   0  0  0  0  0  0  0  0  0  8  0  0
    1.7193   -0.5160   -1.9308 H   0  0  0  0  0  0  0  0  0  9  0  0
   -1.0298   -1.4241   -0.9627 H   0  0  0  0  0  0  0  0  0 10  0  0
   -1.6804    0.0730   -1.1052 H   0  0  0  0  0  0  0  0  0 11  0  0
   -1.9939   -0.1820    1.2786 H   0  0  0  0  0  0  0  0  0 12  0  0
   -1.0767    0.5712    2.5886 H   0  0  0  0  0  0  0  0  0 13  0  0
   -1.3826    1.4678    1.1112 H   0  0  0  0  0  0  0  0  0 14  0  0
    0.3418   -0.9013    1.2993 H   0  0  0  0  0  0  0  0  0 15  0  0
    0.9403    1.8680   -0.2627 H   0  0  0  0  0  0  0  0  0 16  0  0
  2  1  1  0
  2  3  1  6
  4  2  1  0
  6  5  1  0
  6  2  1  0
  7  1  1  0
  8  1  1  0
  9  1  1  0
 10  4  1  0
 11  4  1  0
 12  5  1  0
 13  5  1  0
 14  5  1  0
 15  6  1  0
 16  3  1  0
M  END
