
     RDKit          3D

 16 14  0  0  0  0  0  0  0  0999 V2000
    1.9444   -0.6034   -0.4347 C   0  0  0  0  0  0  0  0  0  1  0  0
    0.9235    0.2543    0.2238 C   0  0  0  0  0  0  0  0  0  2  0  0
    1.0404    1.5511   -0.1818 O   0  0  0  0  0  0  0  0  0  3  0  0
   -1.4903   -0.7614   -1.7383 N   0  0  0  0  0  0  0  0  0  4  0  0
   -0.9008    0.6769    1.6368 C   0  0  0  0  0  0  0  0  0  5  0  0
    0.0635   -0.2185    1.0289 N   0  0  0  0  0  0  0  0  0  6  0  0
    2.9422   -0.2066   -0.2554 H   0  0  0  0  0  0  0  0  0  7  0  0
    1.8700   -1.6152   -0.0543 H   0  0  0  0  0  0  0  0  0  8  0  0
    1.7811   -0.6020   -1.5113 H   0  0  0  0  0  0  0  0  0  9  0  0
   -1.3626   -1.5877   -2.3068 H   0  0  0  0  0  0  0  0  0 10  0  0
   -2.4881   -0.6289   -1.6436 H   0  0  0  0  0  0  0  0  0 11  0  0
   -1.5153    0.1160    2.3369 H   0  0  0  0  0  0  0  0  0 12  0  0
   -0.4268    1.4900    2.1986 H   0  0  0  0  0  0  0  0  0 13  0  0
   -1.5721    1.1289    0.8977 H   0  0  0  0  0  0  0  0  0 14  0  0
   -1.1436   -0.9889   -0.8126 H   0  0  0  0  0  0  0  0  0 15  0  0
    0.3160    2.0650    0.1959 H   0  0  0  0  0  0  0  0  0 16  0  0
  2  1  1  0
  3  2  1  0
  6  5  1  0
  6  2  2  0
  7  1  1  0
  8  1  1  0
  9  1  1  0
 10  4  1  0
 11  4  1  0
 12  5  1  0
 13  5  1  0
 14  5  1  0
 15  4  1  0
 16  3  1  0
M  END
