
     RDKit          3D

 16 15  0  0  0  0  0  0  0  0999 V2000
    1.5607   -0.8931   -0.6726 C   0  0  0  0  0  0  0  0  0  1  0  0
    0.3459   -0.0344   -0.3832 C   0  0  1  0  0  0  0  0  0  2  0  0
    0.7724    1.3158   -0.5963 O   0  0  0  0  0  0  0  0  0  3  0  0
   -0.7394   -0.4382   -1.2772 N   0  0  0  0  0  0  0  0  0  4  0  0
   -1.0762    0.6158    1.5302 C   0  0  0  0  0  0  0  0  0  5  0  0
   -0.0099   -0.2216    1.0143 N   0  0  0  0  0  0  0  0  0  6  0  0
    2.3534   -0.6516    0.0286 H   0  0  0  0  0  0  0  0  0  7  0  0
    1.2979   -1.9452   -0.5828 H   0  0  0  0  0  0  0  0  0  8  0  0
    1.9162   -0.7085   -1.6854 H   0  0  0  0  0  0  0  0  0  9  0  0
   -0.4447   -0.2709   -2.2334 H   0  0  0  0  0  0  0  0  0 10  0  0
   -1.5632    0.1343   -1.1182 H   0  0  0  0  0  0  0  0  0 11  0  0
   -1.3183    0.2879    2.5391 H   0  0  0  0  0  0  0  0  0 12  0  0
   -0.7264    1.6441    1.6091 H   0  0  0  0  0  0  0  0  0 13  0  0
   -2.0148    0.6185    0.9517 H   0  0  0  0  0  0  0  0  0 14  0  0
   -0.2520   -1.1976    1.1244 H   0  0  0  0  0  0  0  0  0 15  0  0
    0.0235    1.8994   -0.4233 H   0  0  0  0  0  0  0  0  0 16  0  0
  2  1  1  0
  2  3  1  1
  4  2  1  0
  6  5  1  0
  6  2  1  0
  7  1  1  0
  8  1  1  0
  9  1  1  0
 10  4  1  0
 11  4  1  0
 12  5  1  0
 13  5  1  0
 14  5  1  0
 15  6  1  0
 16  3  1  0
M  END
