
     RDKit          3D

 16 15  0  0  0  0  0  0  0  0999 V2000
   -1.8579   -0.3687   -0.2160 C   0  0  0  0  0  0  0  0  0  1  0  0
   -0.5201    0.2994   -0.4296 C   0  0  2  0  0  0  0  0  0  2  0  0
   -0.3369    0.4040   -1.8280 O   0  0  0  0  0  0  0  0  0  3  0  0
    0.4535   -0.5187    1.6101 N   0  0  0  0  0  0  0  0  0  4  0  0
    1.8778    0.0579   -0.1229 C   0  0  0  0  0  0  0  0  0  5  0  0
    0.5669   -0.4742    0.1946 N   0  0  0  0  0  0  0  0  0  6  0  0
   -2.6221    0.1764   -0.7635 H   0  0  0  0  0  0  0  0  0  7  0  0
   -1.8230   -1.3912   -0.5829 H   0  0  0  0  0  0  0  0  0  8  0  0
   -2.1359   -0.3765    0.8354 H   0  0  0  0  0  0  0  0  0  9  0  0
   -0.5343    1.3135    0.0231 H   0  0  0  0  0  0  0  0  0 10  0  0
    0.2266    0.4060    1.9857 H   0  0  0  0  0  0  0  0  0 11  0  0
    2.6162   -0.5230    0.4181 H   0  0  0  0  0  0  0  0  0 12  0  0
    2.0704   -0.0456   -1.1885 H   0  0  0  0  0  0  0  0  0 13  0  0
    1.9961    1.1195    0.1611 H   0  0  0  0  0  0  0  0  0 14  0  0
   -0.3122   -1.1363    1.8435 H   0  0  0  0  0  0  0  0  0 15  0  0
    0.3380    1.0708   -1.9985 H   0  0  0  0  0  0  0  0  0 16  0  0
  2  1  1  0
  3  2  1  0
  6  5  1  0
  6  4  1  0
  6  2  1  0
  7  1  1  0
  8  1  1  0
  9  1  1  0
  2 10  1  1
 11  4  1  0
 12  5  1  0
 13  5  1  0
 14  5  1  0
 15  4  1  0
 16  3  1  0
M  END
