
     RDKit          3D

  8  6  0  0  0  0  0  0  0  0999 V2000
    0.1724    0.0513   -1.3333 C   0  0  0  0  0  0  0  0  0  1  0  0
    0.8714    0.3743   -2.2455 O   0  0  0  0  0  1  0  0  0  2  0  0
   -0.0803   -0.0217    1.5198 C   0  0  0  0  0  0  0  0  0  3  0  0
   -0.0038    0.0144    2.6927 O   0  0  0  0  0  3  0  0  0  4  0  0
   -0.8121   -0.4314   -1.4695 H   0  0  0  0  0  0  0  0  0  5  0  0
    0.3074    0.5596   -0.0964 H   0  0  0  0  0  0  0  0  0  6  0  0
    0.6384   -0.1206   -0.0839 H   0  0  0  0  0  0  0  0  0  7  0  0
   -0.9718   -0.4573    0.9847 H   0  0  0  0  0  0  0  0  0  8  0  0
  2  1  1  0
  4  3  3  0
  5  1  1  0
  6  1  1  0
  7  1  1  0
  8  3  1  0
M  CHG  2   2  -1   4   1
M  END
