
     RDKit          3D

  8  7  0  0  0  0  0  0  0  0999 V2000
    0.0473   -0.4711   -0.9179 C   0  0  0  0  0  0  0  0  0  1  0  0
   -0.8046   -0.8066   -1.7054 O   0  0  0  0  0  0  0  0  0  2  0  0
   -0.2379   -0.0549    0.5015 C   0  0  0  0  0  0  0  0  0  3  0  0
    0.7339    0.8353    1.0253 O   0  0  0  0  0  0  0  0  0  4  0  0
    0.6016    1.7012    0.6231 H   0  0  0  0  0  0  0  0  0  5  0  0
    1.1267   -0.4667   -1.1841 H   0  0  0  0  0  0  0  0  0  6  0  0
   -0.1814   -0.9607    1.1144 H   0  0  0  0  0  0  0  0  0  7  0  0
   -1.2621    0.3206    0.5666 H   0  0  0  0  0  0  0  0  0  8  0  0
  2  1  2  0
  3  1  1  0
  4  3  1  0
  5  4  1  0
  6  1  1  0
  7  3  1  0
  8  3  1  0
M  END
