
     RDKit          3D

  8  6  0  0  0  0  0  0  0  0999 V2000
    0.4052    0.2068   -1.6922 C   0  0  0  0  0  0  0  0  0  1  0  0
   -0.6559   -0.3668   -1.6850 O   0  0  0  0  0  0  0  0  0  2  0  0
   -0.4138   -0.2321    1.6857 C   0  0  0  0  0  0  0  0  0  3  0  0
    0.6144    0.3482    1.4442 O   0  0  0  0  0  0  0  0  0  4  0  0
    0.4818    1.3096   -1.6249 H   0  0  0  0  0  0  0  0  0  5  0  0
    1.3677   -0.3368   -1.7658 H   0  0  0  0  0  0  0  0  0  6  0  0
   -0.7468   -0.4182    2.7266 H   0  0  0  0  0  0  0  0  0  7  0  0
   -1.0762   -0.6079    0.8880 H   0  0  0  0  0  0  0  0  0  8  0  0
  2  1  2  0
  4  3  2  0
  5  1  1  0
  6  1  1  0
  7  3  1  0
  8  3  1  0
M  END
