
     RDKit          3D

  8  6  0  0  0  0  0  0  0  0999 V2000
    0.0593    0.1236   -1.3134 C   0  0  0  0  0  0  0  0  0  1  0  0
    0.2126   -0.8741   -1.9384 O   0  0  0  0  0  0  0  0  0  2  0  0
   -0.0579   -0.1236    1.3136 C   0  0  0  0  0  0  0  0  0  3  0  0
   -0.2088    0.8750    1.9378 O   0  0  0  0  0  0  0  0  0  4  0  0
   -0.0336    1.1105   -1.8072 H   0  0  0  0  0  0  0  0  0  5  0  0
    0.3771    0.0439    0.0210 H   0  0  0  0  0  0  0  0  0  6  0  0
   -0.3750   -0.0446   -0.0208 H   0  0  0  0  0  0  0  0  0  7  0  0
    0.0253   -1.1112    1.8076 H   0  0  0  0  0  0  0  0  0  8  0  0
  2  1  2  0
  4  3  2  0
  5  1  1  0
  6  1  1  0
  7  3  1  0
  8  3  1  0
M  END
