
     RDKit          3D

  8  6  0  0  0  0  0  0  0  0999 V2000
   -0.0625    0.6862   -1.7165 C   0  0  0  0  0  0  0  0  0  1  0  0
    0.7624   -0.1669   -1.5006 O   0  0  0  0  0  0  0  0  0  2  0  0
    0.0322   -0.6783    1.7244 C   0  0  0  0  0  0  0  0  0  3  0  0
   -0.7950    0.1725    1.5079 O   0  0  0  0  0  0  0  0  0  4  0  0
   -0.7377    1.0607   -0.9307 H   0  0  0  0  0  0  0  0  0  5  0  0
   -0.1839    1.1386   -2.7213 H   0  0  0  0  0  0  0  0  0  6  0  0
    0.7197   -1.0397    0.9430 H   0  0  0  0  0  0  0  0  0  7  0  0
    0.1434   -1.1416    2.7253 H   0  0  0  0  0  0  0  0  0  8  0  0
  2  1  2  0
  4  3  2  0
  5  1  1  0
  6  1  1  0
  7  3  1  0
  8  3  1  0
M  END
