
     RDKit          3D

  8  6  0  0  0  0  0  0  0  0999 V2000
    0.7258   -0.4903   -0.9538 C   0  0  0  0  0  0  0  0  0  1  0  0
   -0.0346    0.7094   -0.9318 O   0  0  0  0  0  0  0  0  0  2  0  0
   -1.1562    0.8155    2.8631 C   0  0  0  0  0  3  0  0  0  3  0  0
   -1.7491    0.6561    1.9098 O   0  0  0  0  0  3  0  0  0  4  0  0
    0.1119   -1.3792   -0.7745 H   0  0  0  0  0  0  0  0  0  5  0  0
    1.1629   -0.5773   -1.9466 H   0  0  0  0  0  0  0  0  0  6  0  0
   -0.6113    0.6853   -0.1617 H   0  0  0  0  0  0  0  0  0  7  0  0
    1.5429   -0.4715   -0.2261 H   0  0  0  0  0  0  0  0  0  8  0  0
  2  1  1  0
  4  3  3  0
  5  1  1  0
  6  1  1  0
  7  2  1  0
  8  1  1  0
M  CHG  2   3  -1   4   1
M  END
