
     RDKit          3D

 12 10  0  0  0  0  0  0  0  0999 V2000
    1.6975    0.3525    0.4841 O   0  0  0  0  0  0  0  0  0  1  0  0
    1.3642   -0.8288    0.5663 C   0  0  0  0  0  0  0  0  0  2  0  0
    0.0736   -1.3879    0.2572 C   0  0  0  0  0  0  0  0  0  3  0  0
    0.1643    2.5456   -0.3767 O   0  0  0  0  0  0  0  0  0  4  0  0
   -0.9510   -0.6287   -0.1756 C   0  0  0  0  0  0  0  0  0  5  0  0
   -2.1419   -1.1781   -0.4558 O   0  0  0  0  0  0  0  0  0  6  0  0
    2.1125   -1.5657    0.9114 H   0  0  0  0  0  0  0  0  0  7  0  0
   -0.0692   -2.4536    0.3798 H   0  0  0  0  0  0  0  0  0  8  0  0
    0.6126    3.3962   -0.4011 H   0  0  0  0  0  0  0  0  0  9  0  0
    0.8416    1.9152   -0.0562 H   0  0  0  0  0  0  0  0  0 10  0  0
   -0.8605    0.4456   -0.3150 H   0  0  0  0  0  0  0  0  0 11  0  0
   -2.7621   -0.5002   -0.7518 H   0  0  0  0  0  0  0  0  0 12  0  0
  2  1  2  0
  3  2  1  0
  5  3  2  0
  6  5  1  0
  7  2  1  0
  8  3  1  0
  9  4  1  0
 10  4  1  0
 11  5  1  0
 12  6  1  0
M  END
