
     RDKit          3D

 12 11  0  0  0  0  0  0  0  0999 V2000
    2.1775   -1.2260   -0.2810 O   0  0  0  0  0  0  0  0  0  1  0  0
    1.0686   -1.0909    0.1672 C   0  0  0  0  0  0  0  0  0  2  0  0
   -0.4608    0.8982    0.1443 C   0  0  0  0  0  0  0  0  0  3  0  0
    0.6476    1.7771    0.0515 O   0  0  0  0  0  0  0  0  0  4  0  0
   -0.0854   -0.4066   -0.5375 C   0  0  2  0  0  0  0  0  0  5  0  0
   -1.1980   -1.2947   -0.5954 O   0  0  0  0  0  0  0  0  0  6  0  0
    0.7961   -1.5044    1.1690 H   0  0  0  0  0  0  0  0  0  7  0  0
   -0.7318    0.6969    1.1902 H   0  0  0  0  0  0  0  0  0  8  0  0
    0.4003    2.6194    0.4450 H   0  0  0  0  0  0  0  0  0  9  0  0
   -1.3463    1.2997   -0.3563 H   0  0  0  0  0  0  0  0  0 10  0  0
    0.2115   -0.1947   -1.5623 H   0  0  0  0  0  0  0  0  0 11  0  0
   -1.4280   -1.5600    0.3046 H   0  0  0  0  0  0  0  0  0 12  0  0
  2  1  2  0
  4  3  1  0
  5  3  1  0
  5  2  1  0
  6  5  1  0
  7  2  1  0
  8  3  1  0
  9  4  1  0
 10  3  1  0
  5 11  1  6
 12  6  1  0
M  END
