
     RDKit          3D

 12 11  0  0  0  0  0  0  0  0999 V2000
    1.3607   -0.2531    0.8323 O   0  0  0  0  0  3  0  0  0  1  0  0
    1.6734   -1.4419    0.4733 C   0  0  0  0  0  3  0  0  0  2  0  0
    0.1496    0.6044    0.3481 C   0  0  1  0  0  0  0  0  0  3  0  0
    0.6693    1.7668   -0.1506 O   0  0  0  0  0  0  0  0  0  4  0  0
   -0.7130   -0.0375   -0.7074 C   0  0  0  0  0  0  0  0  0  5  0  0
   -1.3561   -1.2356   -0.3026 O   0  0  0  0  0  0  0  0  0  6  0  0
    0.9177   -1.7970   -0.2601 H   0  0  0  0  0  0  0  0  0  7  0  0
   -0.3871    0.7367    1.2919 H   0  0  0  0  0  0  0  0  0  8  0  0
    1.1275    2.2368    0.5593 H   0  0  0  0  0  0  0  0  0  9  0  0
   -1.4327    0.7355   -1.0110 H   0  0  0  0  0  0  0  0  0 10  0  0
   -0.1211   -0.2729   -1.5913 H   0  0  0  0  0  0  0  0  0 11  0  0
   -1.8009   -1.0900    0.5404 H   0  0  0  0  0  0  0  0  0 12  0  0
  2  1  2  0
  3  1  1  0
  4  3  1  0
  5  3  1  0
  6  5  1  0
  7  2  1  0
  3  8  1  1
  9  4  1  0
 10  5  1  0
 11  5  1  0
 12  6  1  0
M  CHG  2   1   1   2  -1
M  END
