
     RDKit          3D

  8  7  0  0  0  0  0  0  0  0999 V2000
   -1.2562   -1.1357    0.4936 O   0  0  0  0  0  0  0  0  0  1  0  0
   -0.8409   -0.1155   -0.1087 C   0  0  0  0  0  0  0  0  0  2  0  0
    0.4608    0.4357   -0.1696 C   0  0  0  0  0  0  0  0  0  3  0  0
    1.6270   -0.0227    0.4315 O   0  0  0  0  0  0  0  0  0  4  0  0
   -1.6797    0.4091   -0.6776 H   0  0  0  0  0  0  0  0  0  5  0  0
    0.6864    1.3331   -0.7332 H   0  0  0  0  0  0  0  0  0  6  0  0
   -0.4735   -0.0765   -0.0444 H   0  0  0  0  0  0  0  0  0  7  0  0
    1.3942   -0.8212    0.9255 H   0  0  0  0  0  0  0  0  0  8  0  0
  2  1  2  0
  3  2  1  0
  4  3  1  0
  5  2  1  0
  6  3  1  0
  7  3  1  0
  8  4  1  0
M  END
