
     RDKit          3D

  8  7  0  0  0  0  0  0  0  0999 V2000
   -1.0751   -0.7706    1.0920 O   0  0  0  0  0  0  0  0  0  1  0  0
   -0.9288   -0.0631    0.1185 C   0  0  0  0  0  0  0  0  0  2  0  0
    0.4341    0.2733   -0.4105 C   0  0  0  0  0  0  0  0  0  3  0  0
    1.4496   -0.3191    0.3473 O   0  0  0  0  0  0  0  0  0  4  0  0
   -1.7969    0.3634   -0.4200 H   0  0  0  0  0  0  0  0  0  5  0  0
    0.5313    1.3699   -0.4278 H   0  0  0  0  0  0  0  0  0  6  0  0
    0.4786   -0.0455   -1.4635 H   0  0  0  0  0  0  0  0  0  7  0  0
    0.9890   -0.8146    1.0467 H   0  0  0  0  0  0  0  0  0  8  0  0
  2  1  2  0
  3  2  1  0
  4  3  1  0
  5  2  1  0
  6  3  1  0
  7  3  1  0
  8  4  1  0
M  END
