
     RDKit          3D

  8  7  0  0  0  0  0  0  0  0999 V2000
   -1.4982   -0.4321    1.0947 O   0  0  0  0  0  0  0  0  0  1  0  0
   -0.4466   -0.4145    0.5145 C   0  0  0  0  0  0  0  0  0  2  0  0
   -0.0197    0.6483   -0.4623 C   0  0  0  0  0  0  0  0  0  3  0  0
    0.4566   -1.4148    0.7199 O   0  0  0  0  0  0  0  0  0  4  0  0
    0.0813    0.2311   -1.4643 H   0  0  0  0  0  0  0  0  0  5  0  0
   -0.7695    1.4311   -0.4836 H   0  0  0  0  0  0  0  0  0  6  0  0
    0.9414    1.0816   -0.1850 H   0  0  0  0  0  0  0  0  0  7  0  0
    1.2485   -1.2645    0.1864 H   0  0  0  0  0  0  0  0  0  8  0  0
  2  1  2  0
  3  2  1  0
  4  2  1  0
  5  3  1  0
  6  3  1  0
  7  3  1  0
  8  4  1  0
M  END
