
     RDKit          3D

 12  9  0  0  0  0  0  0  0  0999 V2000
    1.0873   -2.4742   -0.6734 O   0  0  0  0  0  0  0  0  0  1  0  0
    0.3291   -2.0352    0.1493 C   0  0  0  0  0  0  0  0  0  2  0  0
    0.6222    1.5268   -0.0857 C   0  0  0  0  0  3  0  0  0  3  0  0
    0.9819    2.4757   -0.7398 O   0  0  0  0  0  1  0  0  0  4  0  0
    0.4367    0.1670   -0.7096 C   0  0  0  0  0  0  0  0  0  5  0  0
   -0.0861   -0.7581    0.2554 O   0  0  0  0  0  0  0  0  0  6  0  0
   -0.1484   -2.6144    0.9479 H   0  0  0  0  0  0  0  0  0  7  0  0
    0.3955    1.6081    0.9952 H   0  0  0  0  0  0  0  0  0  8  0  0
   -2.2937    0.9706    1.6227 H   0  0  0  0  0 15  0  0  0  9  0  0
   -0.2767    0.2569   -1.5297 H   0  0  0  0  0  0  0  0  0 10  0  0
    1.3768   -0.2015   -1.1183 H   0  0  0  0  0  0  0  0  0 11  0  0
   -2.5029    1.1937    0.9592 H   0  0  0  0  0 15  0  0  0 12  0  0
  2  1  2  0
  4  3  1  0
  5  3  1  0
  6  5  1  0
  6  2  1  0
  7  2  1  0
  8  3  1  0
 10  5  1  0
 11  5  1  0
M  CHG  4   3  -1   4  -1   9   1  12   1
M  END
