
     RDKit          3D

 12  9  0  0  0  0  0  0  0  0999 V2000
    1.6779   -1.8105    0.0723 O   0  0  0  0  0  0  0  0  0  1  0  0
    0.5027   -1.8577    0.3254 C   0  0  0  0  0  0  0  0  0  2  0  0
    0.8414    1.1733   -0.0931 C   0  0  0  0  0  3  0  0  0  3  0  0
    1.0966    2.2535   -0.5657 O   0  0  0  0  0  1  0  0  0  4  0  0
    0.0587    0.1367   -0.8614 C   0  0  0  0  0  0  0  0  0  5  0  0
   -0.4193   -0.9426   -0.0357 O   0  0  0  0  0  0  0  0  0  6  0  0
    0.0056   -2.6510    0.8979 H   0  0  0  0  0  0  0  0  0  7  0  0
    1.1637    0.8895    0.9261 H   0  0  0  0  0  0  0  0  0  8  0  0
   -2.2125    1.4923    1.3363 H   0  0  0  0  0 15  0  0  0  9  0  0
   -0.8178    0.6022   -1.3067 H   0  0  0  0  0  0  0  0  0 10  0  0
    0.6907   -0.2545   -1.6615 H   0  0  0  0  0  0  0  0  0 11  0  0
   -2.6908    1.0701    0.9859 H   0  0  0  0  0 15  0  0  0 12  0  0
  2  1  2  0
  4  3  1  0
  5  3  1  0
  6  5  1  0
  6  2  1  0
  7  2  1  0
  8  3  1  0
 10  5  1  0
 11  5  1  0
M  CHG  4   3  -1   4  -1   9   1  12   1
M  END
