
     RDKit          3D

 12 11  0  0  0  0  0  0  0  0999 V2000
    2.0187   -1.2526   -0.6346 O   0  0  0  0  0  0  0  0  0  1  0  0
    1.6986   -0.4444    0.2046 C   0  0  0  0  0  0  0  0  0  2  0  0
    0.2621   -0.0903    0.5301 C   0  0  1  0  0  0  0  0  0  3  0  0
    0.2406    1.2095    1.0932 O   0  0  0  0  0  0  0  0  0  4  0  0
   -0.6428   -0.1878   -0.6824 C   0  0  0  0  0  0  0  0  0  5  0  0
   -1.9266    0.2543   -0.2299 O   0  0  0  0  0  0  0  0  0  6  0  0
    2.4494    0.0885    0.8233 H   0  0  0  0  0  0  0  0  0  7  0  0
   -0.0795   -0.8326    1.2706 H   0  0  0  0  0  0  0  0  0  8  0  0
   -0.6891    1.4775    1.0799 H   0  0  0  0  0  0  0  0  0  9  0  0
   -0.2599    0.4639   -1.4717 H   0  0  0  0  0  0  0  0  0 10  0  0
   -0.6671   -1.2133   -1.0542 H   0  0  0  0  0  0  0  0  0 11  0  0
   -2.4857    0.4153   -0.9957 H   0  0  0  0  0  0  0  0  0 12  0  0
  2  1  2  0
  3  2  1  0
  4  3  1  0
  5  3  1  0
  6  5  1  0
  7  2  1  0
  3  8  1  1
  9  4  1  0
 10  5  1  0
 11  5  1  0
 12  6  1  0
M  END
