
     RDKit          3D

  8  7  0  0  0  0  0  0  0  0999 V2000
   -1.1737   -0.9530    0.8552 O   0  0  0  0  0  0  0  0  0  1  0  0
   -0.9439   -0.1574   -0.0300 C   0  0  0  0  0  0  0  0  0  2  0  0
    0.4421    0.3567   -0.2851 C   0  0  0  0  0  0  0  0  0  3  0  0
    1.3749   -0.1906    0.6019 O   0  0  0  0  0  0  0  0  0  4  0  0
   -1.7496    0.2230   -0.6869 H   0  0  0  0  0  0  0  0  0  5  0  0
    0.4154    1.4551   -0.2147 H   0  0  0  0  0  0  0  0  0  6  0  0
    0.7013    0.1330   -1.3316 H   0  0  0  0  0  0  0  0  0  7  0  0
    0.8627   -0.7880    1.1740 H   0  0  0  0  0  0  0  0  0  8  0  0
  2  1  2  0
  3  2  1  0
  4  3  1  0
  5  2  1  0
  6  3  1  0
  7  3  1  0
  8  4  1  0
M  END
