
     RDKit          3D

 12  8  0  0  0  0  0  0  0  0999 V2000
    1.5626   -2.2980    0.4400 O   0  0  0  0  0  0  0  0  0  1  0  0
    0.4196   -2.5134    0.1256 C   0  0  0  0  0  0  0  0  0  2  0  0
    1.3995    3.9006    0.2450 C   0  0  0  0  0  2  0  0  0  3  0  0
    0.9058    3.1495   -0.4443 O   0  0  0  0  0  0  0  0  0  4  0  0
    0.0739   -0.2926   -0.6329 C   0  0  0  0  0  0  0  0  0  5  0  0
   -0.4355   -1.6347   -0.4159 O   0  0  0  0  0  0  0  0  0  6  0  0
   -0.0947   -3.4765    0.2430 H   0  0  0  0  0  0  0  0  0  7  0  0
    0.4215    0.1437    0.2984 H   0  0  0  0  0  0  0  0  0  8  0  0
   -2.0533    1.2948    1.3602 H   0  0  0  0  0 15  0  0  0  9  0  0
   -0.7588    0.2767   -1.0311 H   0  0  0  0  0  0  0  0  0 10  0  0
    0.8944   -0.3172   -1.3475 H   0  0  0  0  0  0  0  0  0 11  0  0
   -2.4627    1.8547    1.1257 H   0  0  0  0  0 15  0  0  0 12  0  0
  2  1  2  0
  4  3  2  0
  6  5  1  0
  6  2  1  0
  7  2  1  0
  8  5  1  0
 10  5  1  0
 11  5  1  0
M  CHG  3   3  -2   9   1  12   1
M  END
