
     RDKit          3D

  8  7  0  0  0  0  0  0  0  0999 V2000
   -1.3127   -0.8346    0.8316 O   0  0  0  0  0  0  0  0  0  1  0  0
   -0.8537   -0.0489   -0.0332 C   0  0  0  0  0  0  0  0  0  2  0  0
    0.4868    0.2980   -0.3241 C   0  0  0  0  0  0  0  0  0  3  0  0
    1.6518   -0.1525    0.2848 O   0  0  0  0  0  0  0  0  0  4  0  0
   -1.6849    0.4306   -0.6509 H   0  0  0  0  0  0  0  0  0  5  0  0
   -0.4797   -0.0441   -0.0080 H   0  0  0  0  0  0  0  0  0  6  0  0
    0.7494    0.9989   -1.1075 H   0  0  0  0  0  0  0  0  0  7  0  0
    1.3862   -0.7749    0.9762 H   0  0  0  0  0  0  0  0  0  8  0  0
  2  1  2  0
  3  2  1  0
  4  3  1  0
  5  2  1  0
  6  3  1  0
  7  3  1  0
  8  4  1  0
M  END
