
     RDKit          3D

 12 11  0  0  0  0  0  0  0  0999 V2000
    2.4904   -0.6688    0.2366 O   0  0  0  0  0  0  0  0  0  1  0  0
    1.3079   -0.7993    0.4215 C   0  0  0  0  0  0  0  0  0  2  0  0
    0.2985    0.3323    0.3499 C   0  0  1  0  0  0  0  0  0  3  0  0
    0.9772    1.5411    0.0912 O   0  0  0  0  0  0  0  0  0  4  0  0
   -0.7609    0.0345   -0.7172 C   0  0  0  0  0  0  0  0  0  5  0  0
   -1.4571   -1.1802   -0.4853 O   0  0  0  0  0  0  0  0  0  6  0  0
    0.8574   -1.7845    0.6564 H   0  0  0  0  0  0  0  0  0  7  0  0
   -0.2123    0.3496    1.3262 H   0  0  0  0  0  0  0  0  0  8  0  0
    0.3985    2.2737    0.3268 H   0  0  0  0  0  0  0  0  0  9  0  0
   -1.4397    0.8937   -0.7732 H   0  0  0  0  0  0  0  0  0 10  0  0
   -0.2735   -0.0547   -1.6856 H   0  0  0  0  0  0  0  0  0 11  0  0
   -2.0834   -1.0386    0.2329 H   0  0  0  0  0  0  0  0  0 12  0  0
  2  1  2  0
  3  2  1  0
  4  3  1  0
  5  3  1  0
  6  5  1  0
  7  2  1  0
  3  8  1  1
  9  4  1  0
 10  5  1  0
 11  5  1  0
 12  6  1  0
M  END
