
     RDKit          3D

  8  7  0  0  0  0  0  0  0  0999 V2000
   -0.9755   -1.3278    0.4782 O   0  0  0  0  0  0  0  0  0  1  0  0
   -0.8897   -0.2749   -0.1165 C   0  0  0  0  0  0  0  0  0  2  0  0
    0.3928    0.5021   -0.1579 C   0  0  0  0  0  0  0  0  0  3  0  0
    1.4141   -0.1367    0.5528 O   0  0  0  0  0  0  0  0  0  4  0  0
   -1.7563    0.1561   -0.6537 H   0  0  0  0  0  0  0  0  0  5  0  0
    0.1936    1.5093    0.2400 H   0  0  0  0  0  0  0  0  0  6  0  0
    0.6673    0.6498   -1.2140 H   0  0  0  0  0  0  0  0  0  7  0  0
    1.0105   -0.9504    0.9021 H   0  0  0  0  0  0  0  0  0  8  0  0
  2  1  2  0
  3  2  1  0
  4  3  1  0
  5  2  1  0
  6  3  1  0
  7  3  1  0
  8  4  1  0
M  END
