
     RDKit          3D

  8  7  0  0  0  0  0  0  0  0999 V2000
   -1.6050   -0.3091    1.1149 O   0  0  0  0  0  1  0  0  0  1  0  0
   -0.9205    0.2700    0.2225 C   0  0  0  0  0  0  0  0  0  2  0  0
    0.4851    0.0990   -0.0817 C   0  0  0  0  0  0  0  0  0  3  0  0
    1.1967   -0.9063    0.4028 O   0  0  0  0  0  3  0  0  0  4  0  0
   -0.9416   -0.2524   -0.8740 H   0  0  0  0  0  0  0  0  0  5  0  0
   -1.1677    1.3331   -0.0546 H   0  0  0  0  0  0  0  0  0  6  0  0
    0.9204    0.7261   -0.8566 H   0  0  0  0  0  0  0  0  0  7  0  0
    2.0928   -0.9033    0.0357 H   0  0  0  0  0  0  0  0  0  8  0  0
  2  1  1  0
  3  2  1  0
  4  3  2  0
  5  2  1  0
  6  2  1  0
  7  3  1  0
  8  4  1  0
M  CHG  2   1  -1   4   1
M  END
