
     RDKit          3D

 12  9  0  0  0  0  0  0  0  0999 V2000
    1.7456   -1.7924   -0.0055 O   0  0  0  0  0  0  0  0  0  1  0  0
    0.6030   -1.8772    0.3617 C   0  0  0  0  0  0  0  0  0  2  0  0
    0.8955    1.1452    0.0053 C   0  0  0  0  0  3  0  0  0  3  0  0
    1.1772    2.2056   -0.4964 O   0  0  0  0  0  1  0  0  0  4  0  0
   -0.0032    0.1517   -0.6908 C   0  0  0  0  0  0  0  0  0  5  0  0
   -0.3683   -0.9748    0.1278 O   0  0  0  0  0  0  0  0  0  6  0  0
    0.1832   -2.7025    0.9511 H   0  0  0  0  0  0  0  0  0  7  0  0
    1.2660    0.8535    1.0057 H   0  0  0  0  0  0  0  0  0  8  0  0
   -2.7610    1.0974    0.5026 H   0  0  0  0  0 15  0  0  0  9  0  0
   -0.9367    0.6436   -0.9586 H   0  0  0  0  0  0  0  0  0 10  0  0
    0.4868   -0.1891   -1.6044 H   0  0  0  0  0  0  0  0  0 11  0  0
   -2.3242    1.4521    0.9668 H   0  0  0  0  0 15  0  0  0 12  0  0
  2  1  2  0
  4  3  1  0
  5  3  1  0
  6  5  1  0
  6  2  1  0
  7  2  1  0
  8  3  1  0
 10  5  1  0
 11  5  1  0
M  CHG  4   3  -1   4  -1   9   1  12   1
M  END
