
     RDKit          3D

 12  9  0  0  0  0  0  0  0  0999 V2000
    2.4210   -1.0263   -0.0481 O   0  0  0  0  0  0  0  0  0  1  0  0
    1.8072   -1.5643    0.8118 C   0  0  0  0  0  3  0  0  0  2  0  0
   -0.2516    0.7842    0.1859 C   0  0  0  0  0  0  0  0  0  3  0  0
    0.5341    1.8392   -0.1277 O   0  0  0  0  0  0  0  0  0  4  0  0
   -0.5365   -0.1271   -0.8038 C   0  0  0  0  0  0  0  0  0  5  0  0
   -1.1949   -1.2936   -0.6127 O   0  0  0  0  0  0  0  0  0  6  0  0
    0.6898   -1.5705    0.8359 H   0  0  0  0  0  0  0  0  0  7  0  0
   -0.5477    0.6334    1.2173 H   0  0  0  0  0  0  0  0  0  8  0  0
    0.5011    2.4999    0.5750 H   0  0  0  0  0  0  0  0  0  9  0  0
   -1.8081    1.1785   -0.6634 H   0  0  0  0  0 15  0  0  0 10  0  0
   -0.1254   -0.0150   -1.7965 H   0  0  0  0  0  0  0  0  0 11  0  0
   -1.5404   -1.3523    0.2872 H   0  0  0  0  0  0  0  0  0 12  0  0
  2  1  2  0
  4  3  1  0
  5  3  2  0
  6  5  1  0
  7  2  1  0
  8  3  1  0
  9  4  1  0
 11  5  1  0
 12  6  1  0
M  CHG  2   2  -1  10   1
M  END
