
     RDKit          3D

 12 11  0  0  0  0  0  0  0  0999 V2000
    2.3581   -0.2652    0.4431 O   0  0  0  0  0  0  0  0  0  1  0  0
    1.1961   -0.6080    0.5113 C   0  0  0  0  0  0  0  0  0  2  0  0
    0.0843    0.4039    0.3976 C   0  0  1  0  0  0  0  0  0  3  0  0
    0.6087    1.6925    0.2386 O   0  0  0  0  0  0  0  0  0  4  0  0
   -0.8537    0.0573   -0.7644 C   0  0  0  0  0  0  0  0  0  5  0  0
   -1.4437   -1.2251   -0.6135 O   0  0  0  0  0  0  0  0  0  6  0  0
    0.9057   -1.6639    0.6451 H   0  0  0  0  0  0  0  0  0  7  0  0
   -0.5132    0.3394    1.3240 H   0  0  0  0  0  0  0  0  0  8  0  0
    1.5766    1.5857    0.2655 H   0  0  0  0  0  0  0  0  0  9  0  0
   -1.5998    0.8528   -0.8474 H   0  0  0  0  0  0  0  0  0 10  0  0
   -0.2864    0.0426   -1.6928 H   0  0  0  0  0  0  0  0  0 11  0  0
   -2.1200   -1.1639    0.0707 H   0  0  0  0  0  0  0  0  0 12  0  0
  2  1  2  0
  3  2  1  0
  4  3  1  0
  5  3  1  0
  6  5  1  0
  7  2  1  0
  3  8  1  1
  9  4  1  0
 10  5  1  0
 11  5  1  0
 12  6  1  0
M  END
