
     RDKit          3D

 12  9  0  0  0  0  0  0  0  0999 V2000
    1.2578   -1.5442   -1.3844 O   0  0  0  0  0  0  0  0  0  1  0  0
    1.0265   -1.9454   -0.2752 C   0  0  0  0  0  0  0  0  0  2  0  0
    0.6837    1.0642    0.5136 C   0  0  0  0  0  3  0  0  0  3  0  0
    1.7931    0.9347    0.9609 O   0  0  0  0  0  1  0  0  0  4  0  0
   -0.2748   -0.0688    0.2461 C   0  0  0  0  0  0  0  0  0  5  0  0
    0.2480   -1.3367    0.6415 O   0  0  0  0  0  0  0  0  0  6  0  0
    1.4084   -2.8798    0.1534 H   0  0  0  0  0  0  0  0  0  7  0  0
    0.2711    2.0650    0.2624 H   0  0  0  0  0  0  0  0  0  8  0  0
   -2.5675    1.8911   -0.2825 H   0  0  0  0  0 15  0  0  0  9  0  0
   -1.1975    0.0914    0.8090 H   0  0  0  0  0  0  0  0  0 10  0  0
   -0.5224   -0.0688   -0.8148 H   0  0  0  0  0  0  0  0  0 11  0  0
   -2.2966    1.9874   -0.9560 H   0  0  0  0  0 15  0  0  0 12  0  0
  2  1  2  0
  4  3  1  0
  5  3  1  0
  6  5  1  0
  6  2  1  0
  7  2  1  0
  8  3  1  0
 10  5  1  0
 11  5  1  0
M  CHG  4   3  -1   4  -1   9   1  12   1
M  END
