
     RDKit          3D

  8  6  0  0  0  0  0  0  0  0999 V2000
   -1.5492   -0.4460    1.2144 O   0  0  0  0  0  0  0  0  0  1  0  0
   -1.3137    0.0276    0.1449 C   0  0  0  0  0  0  0  0  0  2  0  0
    1.1314    0.2139   -0.2991 C   0  0  0  0  0  0  0  0  0  3  0  0
    1.4740   -0.7484    0.2982 O   0  0  0  0  0  0  0  0  0  4  0  0
   -1.9605   -0.0484   -0.7471 H   0  0  0  0  0  0  0  0  0  5  0  0
   -0.2621    0.5657   -0.0535 H   0  0  0  0  0  0  0  0  0  6  0  0
    1.3703    1.0194   -1.0008 H   0  0  0  0  0  0  0  0  0  7  0  0
    1.1804   -0.6625    0.3601 H   0  0  0  0  0  0  0  0  0  8  0  0
  2  1  2  0
  4  3  2  0
  5  2  1  0
  6  2  1  0
  7  3  1  0
  8  3  1  0
M  END
