
     RDKit          3D

  8  7  0  0  0  0  0  0  0  0999 V2000
   -1.7211   -0.2676    0.2802 O   0  0  0  0  0  0  0  0  0  1  0  0
   -0.7164    0.6022   -0.0156 C   0  0  0  0  0  0  0  0  0  2  0  0
    0.5687    0.2751   -0.1172 C   0  0  0  0  0  0  0  0  0  3  0  0
    0.9545   -1.0385    0.0859 O   0  0  0  0  0  0  0  0  0  4  0  0
   -1.3314   -1.1441    0.3999 H   0  0  0  0  0  0  0  0  0  5  0  0
   -1.0556    1.6139   -0.1668 H   0  0  0  0  0  0  0  0  0  6  0  0
    1.3345    1.0008   -0.3550 H   0  0  0  0  0  0  0  0  0  7  0  0
    1.9067   -1.0990   -0.0204 H   0  0  0  0  0  0  0  0  0  8  0  0
  2  1  1  0
  3  2  2  0
  4  3  1  0
  5  1  1  0
  6  2  1  0
  7  3  1  0
  8  4  1  0
M  END
