
     RDKit          3D

  8  7  0  0  0  0  0  0  0  0999 V2000
   -1.3995   -1.3954   -0.0959 O   0  0  0  0  0  1  0  0  0  1  0  0
   -0.8055   -0.3377   -0.4548 C   0  0  0  0  0  0  0  0  0  2  0  0
    0.4711    0.1726    0.0003 C   0  0  0  0  0  0  0  0  0  3  0  0
    1.0832   -0.3061    1.0717 O   0  0  0  0  0  3  0  0  0  4  0  0
   -1.1158    0.6679    0.1520 H   0  0  0  0  0  0  0  0  0  5  0  0
    0.8533    1.0799   -0.4624 H   0  0  0  0  0  0  0  0  0  6  0  0
   -0.9198    0.0224   -1.5156 H   0  0  0  0  0  0  0  0  0  7  0  0
    1.8837    0.2024    1.2680 H   0  0  0  0  0  0  0  0  0  8  0  0
  2  1  1  0
  3  2  1  0
  4  3  2  0
  5  2  1  0
  6  3  1  0
  7  2  1  0
  8  4  1  0
M  CHG  2   1  -1   4   1
M  END
