
     RDKit          3D

  8  7  0  0  0  0  0  0  0  0999 V2000
   -1.6600   -0.5916   -0.0822 O   0  0  0  0  0  0  0  0  0  1  0  0
   -0.5962   -0.0309   -0.7208 C   0  0  0  0  0  0  0  0  0  2  0  0
    0.5754    0.2414   -0.1535 C   0  0  0  0  0  0  0  0  0  3  0  0
    0.7675   -0.0521    1.1853 O   0  0  0  0  0  0  0  0  0  4  0  0
   -1.4069   -0.7492    0.8373 H   0  0  0  0  0  0  0  0  0  5  0  0
    1.3944    0.6880   -0.7005 H   0  0  0  0  0  0  0  0  0  6  0  0
   -0.7841    0.1830   -1.7602 H   0  0  0  0  0  0  0  0  0  7  0  0
    1.6591    0.2053    1.4312 H   0  0  0  0  0  0  0  0  0  8  0  0
  2  1  1  0
  3  2  2  0
  4  3  1  0
  5  1  1  0
  6  3  1  0
  7  2  1  0
  8  4  1  0
M  END
