
     RDKit          3D

  8  7  0  0  0  0  0  0  0  0999 V2000
   -1.4758   -0.4895    0.9431 O   0  0  0  0  0  0  0  0  0  1  0  0
   -0.3800   -0.3638    0.3626 C   0  0  0  0  0  0  0  0  0  2  0  0
    0.0020    0.7945   -0.4069 C   0  0  0  0  0  0  0  0  0  3  0  0
    0.4416   -1.4723    0.5740 O   0  0  0  0  0  0  0  0  0  4  0  0
    0.0556    0.4124   -0.5586 H   0  0  0  0  0  0  0  0  0  5  0  0
   -0.8118    1.4075   -0.6569 H   0  0  0  0  0  0  0  0  0  6  0  0
    0.9071    1.2892   -0.2492 H   0  0  0  0  0  0  0  0  0  7  0  0
    1.2674   -1.4444    0.0716 H   0  0  0  0  0  0  0  0  0  8  0  0
  2  1  2  0
  3  2  1  0
  4  2  1  0
  5  3  1  0
  6  3  1  0
  7  3  1  0
  8  4  1  0
M  END
