
     RDKit          3D

 16 15  0  0  0  0  0  0  0  0999 V2000
   -1.2643   -0.2203    0.5700 O   0  0  0  0  0  0  0  0  0  1  0  0
   -0.8676   -0.7307   -0.6422 C   0  0  0  0  0  0  0  0  0  2  0  0
   -0.8791    0.0384   -1.7296 C   0  0  0  0  0  0  0  0  0  3  0  0
   -0.5567   -0.4627   -2.9620 O   0  0  0  0  0  0  0  0  0  4  0  0
   -0.2276   -0.1239    1.5762 C   0  0  1  0  0  0  0  0  0  5  0  0
    0.3967   -1.3367    1.8490 O   0  0  0  0  0  0  0  0  0  6  0  0
    0.8109    0.9185    1.1714 C   0  0  0  0  0  0  0  0  0  7  0  0
    1.7814    0.3445    0.3082 O   0  0  0  0  0  0  0  0  0  8  0  0
   -0.6300   -1.7872   -0.6927 H   0  0  0  0  0  0  0  0  0  9  0  0
    1.3464    0.1773   -0.5433 H   0  0  0  0  0  0  0  0  0 10  0  0
   -0.8149    0.1670   -3.6424 H   0  0  0  0  0  0  0  0  0 11  0  0
   -0.7870    0.1856    2.4591 H   0  0  0  0  0  0  0  0  0 12  0  0
   -1.1483    1.0878   -1.6692 H   0  0  0  0  0  0  0  0  0 13  0  0
    0.3159    1.7779    0.7120 H   0  0  0  0  0  0  0  0  0 14  0  0
    1.3467    1.2630    2.0543 H   0  0  0  0  0  0  0  0  0 15  0  0
    1.2035   -1.3361    1.3013 H   0  0  0  0  0  0  0  0  0 16  0  0
  2  1  1  0
  3  2  2  0
  4  3  1  0
  5  1  1  0
  6  5  1  0
  7  5  1  0
  8  7  1  0
  9  2  1  0
 10  8  1  0
 11  4  1  0
  5 12  1  1
 13  3  1  0
 14  7  1  0
 15  7  1  0
 16  6  1  0
M  END
