
     RDKit          3D

 16 14  0  0  0  0  0  0  0  0999 V2000
   -3.0539   -1.1210   -1.2287 O   0  0  0  0  0  0  0  0  0  1  0  0
   -2.5929   -1.2555   -0.1194 C   0  0  0  0  0  0  0  0  0  2  0  0
   -1.9631   -0.1342    0.6659 C   0  0  0  0  0  0  0  0  0  3  0  0
   -1.1368   -0.5857    1.7146 O   0  0  0  0  0  0  0  0  0  4  0  0
    2.2689    0.9805   -1.3151 C   0  0  0  0  0  0  0  0  0  5  0  0
    2.0928    0.0930   -2.1211 O   0  0  0  0  0  0  0  0  0  6  0  0
    1.9169    0.8110    0.1363 C   0  0  0  0  0  0  0  0  0  7  0  0
    1.3648   -0.4564    0.3961 O   0  0  0  0  0  0  0  0  0  8  0  0
   -2.6334   -2.2278    0.4185 H   0  0  0  0  0  0  0  0  0  9  0  0
   -2.7920    0.4274    1.1135 H   0  0  0  0  0  0  0  0  0 10  0  0
   -0.2275   -0.6475    1.3761 H   0  0  0  0  0  0  0  0  0 11  0  0
    2.7019    1.9552   -1.6073 H   0  0  0  0  0  0  0  0  0 12  0  0
   -1.4681    0.5420   -0.0388 H   0  0  0  0  0  0  0  0  0 13  0  0
    2.8216    0.9711    0.7392 H   0  0  0  0  0  0  0  0  0 14  0  0
    1.2173    1.6113    0.4168 H   0  0  0  0  0  0  0  0  0 15  0  0
    1.3868   -0.9315   -0.4531 H   0  0  0  0  0  0  0  0  0 16  0  0
  2  1  2  0
  3  2  1  0
  4  3  1  0
  6  5  2  0
  7  5  1  0
  8  7  1  0
  9  2  1  0
 10  3  1  0
 11  4  1  0
 12  5  1  0
 13  3  1  0
 14  7  1  0
 15  7  1  0
 16  8  1  0
M  END
