
     RDKit          3D

 16 15  0  0  0  0  0  0  0  0999 V2000
   -2.1893   -0.3428   -1.6742 O   0  0  0  0  0  0  0  0  0  1  0  0
   -2.0979   -0.4790   -0.4730 C   0  0  0  0  0  0  0  0  0  2  0  0
   -0.9463    0.0233    0.3718 C   0  0  1  0  0  0  0  0  0  3  0  0
   -0.6811   -0.9872    1.3241 O   0  0  0  0  0  0  0  0  0  4  0  0
    0.2541    0.4340   -0.4867 C   0  0  2  0  0  0  0  0  0  5  0  0
    0.6893   -0.6415   -1.3100 O   0  0  0  0  0  0  0  0  0  6  0  0
    1.4588    0.8373    0.3420 C   0  0  0  0  0  0  0  0  0  7  0  0
    1.9593   -0.2572    1.1153 O   0  0  0  0  0  0  0  0  0  8  0  0
   -2.8762   -1.0069    0.1115 H   0  0  0  0  0  0  0  0  0  9  0  0
   -1.3247    0.9296    0.8795 H   0  0  0  0  0  0  0  0  0 10  0  0
    0.2685   -0.9232    1.5450 H   0  0  0  0  0  0  0  0  0 11  0  0
   -0.0442    1.2964   -1.0922 H   0  0  0  0  0  0  0  0  0 12  0  0
   -0.0165   -0.8177   -1.9479 H   0  0  0  0  0  0  0  0  0 13  0  0
    2.2373    1.2180   -0.3240 H   0  0  0  0  0  0  0  0  0 14  0  0
    1.2035    1.6281    1.0474 H   0  0  0  0  0  0  0  0  0 15  0  0
    2.2022   -0.9432    0.4779 H   0  0  0  0  0  0  0  0  0 16  0  0
  2  1  2  0
  3  2  1  0
  4  3  1  0
  5  3  1  0
  6  5  1  0
  7  5  1  0
  8  7  1  0
  9  2  1  0
  3 10  1  1
 11  4  1  0
  5 12  1  6
 13  6  1  0
 14  7  1  0
 15  7  1  0
 16  8  1  0
M  END
