
     RDKit          3D

 11  9  0  0  0  0  0  0  0  0999 V2000
   -0.4152   -0.3030    0.9975 C   0  0  0  0  0  0  0  0  0  1  0  0
    1.1055    0.6225   -2.6942 C   0  0  0  0  0  0  0  0  0  2  0  0
    0.5095   -0.4228   -2.7423 O   0  0  0  0  0  0  0  0  0  3  0  0
   -1.1168   -0.6795    2.2222 N   0  0  0  0  0  0  0  0  0  4  0  0
   -1.1387   -0.0716    0.2184 H   0  0  0  0  0  0  0  0  0  5  0  0
    0.1666   -1.1468    0.6320 H   0  0  0  0  0  0  0  0  0  6  0  0
    2.1973    0.6680   -2.5158 H   0  0  0  0  0  0  0  0  0  7  0  0
    0.5941    1.5953   -2.8297 H   0  0  0  0  0  0  0  0  0  8  0  0
    0.2634    0.5555    1.0883 H   0  0  0  0  0  0  0  0  0  9  0  0
   -1.6701    0.0987    2.5591 H   0  0  0  0  0  0  0  0  0 10  0  0
   -0.4509   -0.8936    2.9542 H   0  0  0  0  0  0  0  0  0 11  0  0
  3  2  2  0
  4  1  1  0
  5  1  1  0
  6  1  1  0
  7  2  1  0
  8  2  1  0
  9  1  1  0
 10  4  1  0
 11  4  1  0
M  END
