
     RDKit          3D

 11  9  0  0  0  0  0  0  0  0999 V2000
    0.5912   -0.6282   -0.8145 C   0  0  0  0  0  0  0  0  0  1  0  0
    0.2098    0.6508   -1.4878 C   0  0  0  0  0  0  0  0  0  2  0  0
   -0.1101   -1.6166   -0.7666 O   0  0  0  0  0  0  0  0  0  3  0  0
   -0.5443    0.0116    1.9316 N   0  0  0  0  0  0  0  0  0  4  0  0
    1.5968   -0.6274   -0.3431 H   0  0  0  0  0  0  0  0  0  5  0  0
    0.9730    0.9376   -2.2133 H   0  0  0  0  0  0  0  0  0  6  0  0
   -0.7549    0.5548   -1.9768 H   0  0  0  0  0  0  0  0  0  7  0  0
    0.1713    1.4435   -0.7390 H   0  0  0  0  0  0  0  0  0  8  0  0
    0.0281   -0.3293    2.6932 H   0  0  0  0  0  0  0  0  0  9  0  0
   -1.3731    0.4205    2.3430 H   0  0  0  0  0  0  0  0  0 10  0  0
   -0.8477   -0.8037    1.4116 H   0  0  0  0  0  0  0  0  0 11  0  0
  2  1  1  0
  3  1  2  0
  5  1  1  0
  6  2  1  0
  7  2  1  0
  8  2  1  0
  9  4  1  0
 10  4  1  0
 11  4  1  0
M  END
