
     RDKit          3D

 11 10  0  0  0  0  0  0  0  0999 V2000
    0.7684   -0.2353   -0.7748 C   0  0  0  0  0  0  0  0  0  1  0  0
   -0.4312    0.5174   -0.2253 C   0  0  0  0  0  0  0  0  0  2  0  0
    0.6425   -1.6196   -0.5128 O   0  0  0  0  0  0  0  0  0  3  0  0
   -0.6001    0.1293    1.1769 N   0  0  0  0  0  0  0  0  0  4  0  0
    1.6872    0.1682   -0.3238 H   0  0  0  0  0  0  0  0  0  5  0  0
    0.8495   -0.0972   -1.8543 H   0  0  0  0  0  0  0  0  0  6  0  0
   -1.3183    0.2050   -0.7780 H   0  0  0  0  0  0  0  0  0  7  0  0
   -0.3123    1.5986   -0.3835 H   0  0  0  0  0  0  0  0  0  8  0  0
    0.0871    0.5871    1.7614 H   0  0  0  0  0  0  0  0  0  9  0  0
   -1.5107    0.3917    1.5235 H   0  0  0  0  0  0  0  0  0 10  0  0
    0.1976   -1.6588    0.3526 H   0  0  0  0  0  0  0  0  0 11  0  0
  2  1  1  0
  3  1  1  0
  4  2  1  0
  5  1  1  0
  6  1  1  0
  7  2  1  0
  8  2  1  0
  9  4  1  0
 10  4  1  0
 11  3  1  0
M  END
