
     RDKit          3D

 11 10  0  0  0  0  0  0  0  0999 V2000
    0.2138    0.1176   -1.2408 C   0  0  0  0  0  0  0  0  0  1  0  0
   -1.2353   -0.0559   -1.2043 C   0  0  0  0  0  0  0  0  0  2  0  0
   -0.5543    0.1607   -2.4417 O   0  0  0  0  0  0  0  0  0  3  0  0
    1.0886   -0.0141    2.0109 N   0  0  0  0  0  0  0  0  0  4  0  0
    0.8607   -0.7475   -1.1226 H   0  0  0  0  0  0  0  0  0  5  0  0
    0.6495    1.0604   -0.9233 H   0  0  0  0  0  0  0  0  0  6  0  0
   -1.8672    0.7610   -0.8682 H   0  0  0  0  0  0  0  0  0  7  0  0
   -1.6577   -1.0479   -1.0726 H   0  0  0  0  0  0  0  0  0  8  0  0
    0.9520    0.7993    2.5958 H   0  0  0  0  0  0  0  0  0  9  0  0
    1.3712   -0.7685    2.6219 H   0  0  0  0  0  0  0  0  0 10  0  0
    0.1792   -0.2620    1.6422 H   0  0  0  0  0  0  0  0  0 11  0  0
  2  1  1  0
  3  2  1  0
  3  1  1  0
  5  1  1  0
  6  1  1  0
  7  2  1  0
  8  2  1  0
  9  4  1  0
 10  4  1  0
 11  4  1  0
M  END
