
     RDKit          3D

 11 10  0  0  0  0  0  0  0  0999 V2000
   -0.0897   -0.0120   -1.7216 C   0  0  0  0  0  0  0  0  0  1  0  0
   -1.0198    0.3489   -0.6558 C   0  0  0  0  0  0  0  0  0  2  0  0
   -1.4115    0.4382   -2.0243 O   0  0  0  0  0  0  0  0  0  3  0  0
    0.7545   -0.2175    2.1527 N   0  0  0  0  0  0  0  0  0  4  0  0
    0.1076   -1.0589   -1.9333 H   0  0  0  0  0  0  0  0  0  5  0  0
    0.7099    0.6707   -1.9946 H   0  0  0  0  0  0  0  0  0  6  0  0
   -0.8981    1.2946   -0.1352 H   0  0  0  0  0  0  0  0  0  7  0  0
   -1.5006   -0.4332   -0.0755 H   0  0  0  0  0  0  0  0  0  8  0  0
    1.1096   -0.3129    1.2096 H   0  0  0  0  0  0  0  0  0  9  0  0
    1.3808    0.4113    2.6371 H   0  0  0  0  0  0  0  0  0 10  0  0
    0.8523   -1.1226    2.5925 H   0  0  0  0  0  0  0  0  0 11  0  0
  2  1  1  0
  3  2  1  0
  3  1  1  0
  5  1  1  0
  6  1  1  0
  7  2  1  0
  8  2  1  0
  9  4  1  0
 10  4  1  0
 11  4  1  0
M  END
