
     RDKit          3D

 11  9  0  0  0  0  0  0  0  0999 V2000
   -0.1987   -0.1343   -1.6203 C   0  0  0  0  0  0  0  0  0  1  0  0
   -0.8549    0.6396   -0.5225 C   0  0  0  0  0  0  0  0  0  2  0  0
   -0.4814    1.7233   -0.1264 O   0  0  0  0  0  0  0  0  0  3  0  0
    0.7589   -0.4966    1.7922 N   0  0  0  0  0  0  0  0  0  4  0  0
    0.6212    0.4314   -2.0520 H   0  0  0  0  0  0  0  0  0  5  0  0
    0.1713   -1.0767   -1.2130 H   0  0  0  0  0  0  0  0  0  6  0  0
   -1.7431    0.1498   -0.0705 H   0  0  0  0  0  0  0  0  0  7  0  0
   -0.9281   -0.3880   -2.3915 H   0  0  0  0  0  0  0  0  0  8  0  0
    0.7322    0.4991    1.6050 H   0  0  0  0  0  0  0  0  0  9  0  0
    1.7270   -0.7347    1.9644 H   0  0  0  0  0  0  0  0  0 10  0  0
    0.2583   -0.6404    2.6598 H   0  0  0  0  0  0  0  0  0 11  0  0
  2  1  1  0
  3  2  2  0
  5  1  1  0
  6  1  1  0
  7  2  1  0
  8  1  1  0
  9  4  1  0
 10  4  1  0
 11  4  1  0
M  END
