
     RDKit          3D

 11 10  0  0  0  0  0  0  0  0999 V2000
   -0.2627   -0.2456   -1.7127 C   0  0  0  0  0  0  0  0  0  1  0  0
    0.4688    0.8012   -1.0134 C   0  0  0  0  0  0  0  0  0  2  0  0
    0.7105   -0.5785   -0.7153 O   0  0  0  0  0  0  0  0  0  3  0  0
   -0.3731   -0.2116    2.2706 N   0  0  0  0  0  0  0  0  0  4  0  0
    0.0106   -0.5067   -2.7295 H   0  0  0  0  0  0  0  0  0  5  0  0
   -1.2933   -0.4491   -1.4411 H   0  0  0  0  0  0  0  0  0  6  0  0
    0.1093   -0.6044    1.4694 H   0  0  0  0  0  0  0  0  0  7  0  0
    1.2862    1.3085   -1.5157 H   0  0  0  0  0  0  0  0  0  8  0  0
   -0.9153   -0.9599    2.6814 H   0  0  0  0  0  0  0  0  0  9  0  0
    0.3384    0.0339    2.9456 H   0  0  0  0  0  0  0  0  0 10  0  0
   -0.0195    1.3688   -0.2294 H   0  0  0  0  0  0  0  0  0 11  0  0
  2  1  1  0
  3  2  1  0
  3  1  1  0
  5  1  1  0
  6  1  1  0
  7  4  1  0
  8  2  1  0
  9  4  1  0
 10  4  1  0
 11  2  1  0
M  END
