
     RDKit          3D

 11 10  0  0  0  0  0  0  0  0999 V2000
   -1.1141    0.5822   -1.7882 C   0  0  0  0  0  0  0  0  0  1  0  0
   -0.0364   -0.1230   -1.1058 C   0  0  0  0  0  0  0  0  0  2  0  0
   -0.1740   -0.2043   -2.5263 O   0  0  0  0  0  0  0  0  0  3  0  0
    0.9664   -0.4062    2.2864 N   0  0  0  0  0  0  0  0  0  4  0  0
   -1.0469    1.6555   -1.9394 H   0  0  0  0  0  0  0  0  0  5  0  0
   -2.1260    0.1896   -1.7513 H   0  0  0  0  0  0  0  0  0  6  0  0
   -0.2496   -1.0376   -0.5589 H   0  0  0  0  0  0  0  0  0  7  0  0
    0.8286    0.4281   -0.7468 H   0  0  0  0  0  0  0  0  0  8  0  0
    0.9335   -1.2858    2.7855 H   0  0  0  0  0  0  0  0  0  9  0  0
    1.7769    0.0933    2.6291 H   0  0  0  0  0  0  0  0  0 10  0  0
    0.1532    0.1234    2.5710 H   0  0  0  0  0  0  0  0  0 11  0  0
  2  1  1  0
  3  2  1  0
  3  1  1  0
  5  1  1  0
  6  1  1  0
  7  2  1  0
  8  2  1  0
  9  4  1  0
 10  4  1  0
 11  4  1  0
M  END
