
     RDKit          3D

 11 10  0  0  0  0  0  0  0  0999 V2000
    0.6304    0.3647   -0.0231 C   0  0  0  0  0  0  0  0  0  1  0  0
   -0.2875   -0.3219   -1.0199 C   0  0  0  0  0  0  0  0  0  2  0  0
   -1.6376    0.0017   -0.7491 O   0  0  0  0  0  0  0  0  0  3  0  0
    0.1405    0.0572    1.3224 N   0  0  0  0  0  0  0  0  0  4  0  0
    0.5623    1.4427   -0.1762 H   0  0  0  0  0  0  0  0  0  5  0  0
    1.6758    0.0746   -0.2005 H   0  0  0  0  0  0  0  0  0  6  0  0
   -0.1268   -1.4092   -0.9716 H   0  0  0  0  0  0  0  0  0  7  0  0
   -0.0567   -0.0051   -2.0382 H   0  0  0  0  0  0  0  0  0  8  0  0
   -1.6758    0.0712    0.2215 H   0  0  0  0  0  0  0  0  0  9  0  0
    0.3860   -0.8880    1.5867 H   0  0  0  0  0  0  0  0  0 10  0  0
    0.5444    0.6748    2.0106 H   0  0  0  0  0  0  0  0  0 11  0  0
  2  1  1  0
  3  2  1  0
  4  1  1  0
  5  1  1  0
  6  1  1  0
  7  2  1  0
  8  2  1  0
  9  3  1  0
 10  4  1  0
 11  4  1  0
M  END
