
     RDKit          3D

 11 10  0  0  0  0  0  0  0  0999 V2000
   -0.5630   -0.2429   -0.2252 C   0  0  0  0  0  0  0  0  0  1  0  0
    0.5115    0.4227   -1.0958 C   0  0  0  0  0  0  0  0  0  2  0  0
    0.1363    0.4197   -2.3392 O   0  0  0  0  0  1  0  0  0  3  0  0
   -0.1136   -0.2264    1.2533 N   0  0  0  0  0  4  0  0  0  4  0  0
   -1.5074    0.2983   -0.2739 H   0  0  0  0  0  0  0  0  0  5  0  0
   -0.7077   -1.2874   -0.4998 H   0  0  0  0  0  0  0  0  0  6  0  0
    1.4881   -0.1368   -0.8497 H   0  0  0  0  0  0  0  0  0  7  0  0
    0.6963    1.4524   -0.6134 H   0  0  0  0  0  0  0  0  0  8  0  0
    0.7907   -0.6901    1.3072 H   0  0  0  0  0  0  0  0  0  9  0  0
    0.0203    0.7441    1.5276 H   0  0  0  0  0  0  0  0  0 10  0  0
   -0.7635   -0.6731    1.8917 H   0  0  0  0  0  0  0  0  0 11  0  0
  2  1  1  0
  3  2  1  0
  4  1  1  0
  5  1  1  0
  6  1  1  0
  7  2  1  0
  8  2  1  0
  9  4  1  0
 10  4  1  0
 11  4  1  0
M  CHG  2   3  -1   4   1
M  END
