
     RDKit          3D

 11 10  0  0  0  0  0  0  0  0999 V2000
   -0.0536   -0.2448   -1.5055 C   0  0  0  0  0  0  0  0  0  1  0  0
    0.2742    1.0978   -1.0435 C   0  0  0  0  0  0  0  0  0  2  0  0
    1.0544   -0.0258   -0.6303 O   0  0  0  0  0  0  0  0  0  3  0  0
   -0.1976   -0.8169    2.4458 N   0  0  0  0  0  0  0  0  0  4  0  0
    0.2040   -0.5439   -2.5156 H   0  0  0  0  0  0  0  0  0  5  0  0
   -0.8995   -0.7661   -1.0668 H   0  0  0  0  0  0  0  0  0  6  0  0
   -0.3327    1.5559   -0.2679 H   0  0  0  0  0  0  0  0  0  7  0  0
    0.7741    1.7897   -1.7124 H   0  0  0  0  0  0  0  0  0  8  0  0
    0.3418    0.0065    2.2175 H   0  0  0  0  0  0  0  0  0  9  0  0
    0.0061   -1.4817    1.7124 H   0  0  0  0  0  0  0  0  0 10  0  0
   -1.1732   -0.5682    2.3610 H   0  0  0  0  0  0  0  0  0 11  0  0
  2  1  1  0
  3  2  1  0
  3  1  1  0
  5  1  1  0
  6  1  1  0
  7  2  1  0
  8  2  1  0
  9  4  1  0
 10  4  1  0
 11  4  1  0
M  END
