
     RDKit          3D

 11 10  0  0  0  0  0  0  0  0999 V2000
   -0.6197   -0.3409    0.0650 C   0  0  0  0  0  0  0  0  0  1  0  0
    0.2398    0.1759   -1.0759 C   0  0  0  0  0  0  0  0  0  2  0  0
    1.6000   -0.1386   -0.8485 O   0  0  0  0  0  0  0  0  0  3  0  0
   -0.0372    0.1419    1.3192 N   0  0  0  0  0  0  0  0  0  4  0  0
   -0.5777   -1.4309    0.0633 H   0  0  0  0  0  0  0  0  0  5  0  0
   -1.6703   -0.0545   -0.0848 H   0  0  0  0  0  0  0  0  0  6  0  0
    0.0984    1.2627   -1.1729 H   0  0  0  0  0  0  0  0  0  7  0  0
   -0.0625   -0.2759   -2.0221 H   0  0  0  0  0  0  0  0  0  8  0  0
    1.7019   -0.0708    0.1177 H   0  0  0  0  0  0  0  0  0  9  0  0
   -0.4035   -0.3628    2.1125 H   0  0  0  0  0  0  0  0  0 10  0  0
   -0.2513    1.1204    1.4611 H   0  0  0  0  0  0  0  0  0 11  0  0
  2  1  1  0
  3  2  1  0
  4  1  1  0
  5  1  1  0
  6  1  1  0
  7  2  1  0
  8  2  1  0
  9  3  1  0
 10  4  1  0
 11  4  1  0
M  END
