
     RDKit          3D

 11  9  0  0  0  0  0  0  0  0999 V2000
   -0.7338    0.6559   -1.6002 C   0  0  0  0  0  0  0  0  0  1  0  0
    0.3568   -0.2616   -1.1630 C   0  0  0  0  0  0  0  0  0  2  0  0
   -1.6410    0.3610   -2.3467 O   0  0  0  0  0  0  0  0  0  3  0  0
    0.2436   -0.2622    2.1083 N   0  0  0  0  0  0  0  0  0  4  0  0
   -0.6770    1.6868   -1.1803 H   0  0  0  0  0  0  0  0  0  5  0  0
    0.3549   -0.3383   -0.0647 H   0  0  0  0  0  0  0  0  0  6  0  0
    0.2358   -1.2396   -1.6228 H   0  0  0  0  0  0  0  0  0  7  0  0
    1.3262    0.1590   -1.4456 H   0  0  0  0  0  0  0  0  0  8  0  0
   -0.0131   -1.1707    2.4748 H   0  0  0  0  0  0  0  0  0  9  0  0
    1.1046    0.0055    2.5691 H   0  0  0  0  0  0  0  0  0 10  0  0
   -0.4685    0.3890    2.4157 H   0  0  0  0  0  0  0  0  0 11  0  0
  2  1  1  0
  3  1  2  0
  5  1  1  0
  6  2  1  0
  7  2  1  0
  8  2  1  0
  9  4  1  0
 10  4  1  0
 11  4  1  0
M  END
