
     RDKit          3D

 11 10  0  0  0  0  0  0  0  0999 V2000
   -0.3186   -0.6427   -0.0641 C   0  0  0  0  0  0  0  0  0  1  0  0
    0.5543    0.2433   -0.9362 C   0  0  0  0  0  0  0  0  0  2  0  0
    0.1234    1.5885   -0.8583 O   0  0  0  0  0  0  0  0  0  3  0  0
   -0.3662   -0.0474    1.2732 N   0  0  0  0  0  0  0  0  0  4  0  0
   -1.3290   -0.6456   -0.4756 H   0  0  0  0  0  0  0  0  0  5  0  0
    0.0454   -1.6797   -0.0844 H   0  0  0  0  0  0  0  0  0  6  0  0
    0.5036   -0.0726   -1.9795 H   0  0  0  0  0  0  0  0  0  7  0  0
    1.6026    0.1472   -0.6162 H   0  0  0  0  0  0  0  0  0  8  0  0
    0.4950   -0.2212    1.7746 H   0  0  0  0  0  0  0  0  0  9  0  0
   -0.1821    1.6879    0.0610 H   0  0  0  0  0  0  0  0  0 10  0  0
   -1.1166   -0.4380    1.8231 H   0  0  0  0  0  0  0  0  0 11  0  0
  2  1  1  0
  3  2  1  0
  4  1  1  0
  5  1  1  0
  6  1  1  0
  7  2  1  0
  8  2  1  0
  9  4  1  0
 10  3  1  0
 11  4  1  0
M  END
