
     RDKit          3D

 11  9  0  0  0  0  0  0  0  0999 V2000
   -0.7674   -0.7097   -1.2618 C   0  0  0  0  0  0  0  0  0  1  0  0
    0.4152    0.1895   -1.0944 C   0  0  0  0  0  0  0  0  0  2  0  0
    1.5481   -0.1949   -0.8952 O   0  0  0  0  0  0  0  0  0  3  0  0
    0.2355    0.5587    1.9140 N   0  0  0  0  0  0  0  0  0  4  0  0
   -0.4647   -1.7519   -1.2332 H   0  0  0  0  0  0  0  0  0  5  0  0
   -1.4810   -0.5052   -0.4619 H   0  0  0  0  0  0  0  0  0  6  0  0
    0.1930    1.2748   -1.1690 H   0  0  0  0  0  0  0  0  0  7  0  0
   -1.2761   -0.4914   -2.2022 H   0  0  0  0  0  0  0  0  0  8  0  0
    1.0689    0.1804    1.4788 H   0  0  0  0  0  0  0  0  0  9  0  0
    0.0197   -0.0396    2.7007 H   0  0  0  0  0  0  0  0  0 10  0  0
    0.4911    1.4629    2.2894 H   0  0  0  0  0  0  0  0  0 11  0  0
  2  1  1  0
  3  2  2  0
  5  1  1  0
  6  1  1  0
  7  2  1  0
  8  1  1  0
  9  4  1  0
 10  4  1  0
 11  4  1  0
M  END
