
     RDKit          3D

 11 10  0  0  0  0  0  0  0  0999 V2000
    0.5148    0.6821   -1.0590 C   0  0  0  0  0  0  0  0  0  1  0  0
   -0.1849   -0.4266   -1.6921 C   0  0  0  0  0  0  0  0  0  2  0  0
   -0.8398    0.3802   -0.7055 O   0  0  0  0  0  0  0  0  0  3  0  0
    0.0123   -0.3247    2.2920 N   0  0  0  0  0  0  0  0  0  4  0  0
    0.6468    1.6113   -1.6038 H   0  0  0  0  0  0  0  0  0  5  0  0
    1.2522    0.4847   -0.2892 H   0  0  0  0  0  0  0  0  0  6  0  0
    0.0389   -1.4432   -1.3861 H   0  0  0  0  0  0  0  0  0  7  0  0
   -0.5640   -0.3184   -2.7026 H   0  0  0  0  0  0  0  0  0  8  0  0
   -0.5646   -0.0741    1.4962 H   0  0  0  0  0  0  0  0  0  9  0  0
   -0.4501   -1.0936    2.7586 H   0  0  0  0  0  0  0  0  0 10  0  0
   -0.0164    0.4598    2.9290 H   0  0  0  0  0  0  0  0  0 11  0  0
  2  1  1  0
  3  2  1  0
  3  1  1  0
  5  1  1  0
  6  1  1  0
  7  2  1  0
  8  2  1  0
  9  4  1  0
 10  4  1  0
 11  4  1  0
M  END
