
     RDKit          3D

 11 10  0  0  0  0  0  0  0  0999 V2000
   -0.1355   -0.1159   -1.6505 C   0  0  0  0  0  0  0  0  0  1  0  0
    1.2168    0.0208   -1.1231 C   0  0  0  0  0  0  0  0  0  2  0  0
    0.8671   -1.0909   -1.9532 O   0  0  0  0  0  0  0  0  0  3  0  0
   -0.8730    0.1366    2.2005 N   0  0  0  0  0  0  0  0  0  4  0  0
   -0.4567    0.4958   -2.4888 H   0  0  0  0  0  0  0  0  0  5  0  0
   -0.9290   -0.4492   -0.9876 H   0  0  0  0  0  0  0  0  0  6  0  0
    1.4018   -0.2133   -0.0786 H   0  0  0  0  0  0  0  0  0  7  0  0
    1.9042    0.7347   -1.5681 H   0  0  0  0  0  0  0  0  0  8  0  0
   -1.0769   -0.7597    2.6248 H   0  0  0  0  0  0  0  0  0  9  0  0
   -0.2413    0.6219    2.8246 H   0  0  0  0  0  0  0  0  0 10  0  0
   -1.7376    0.6625    2.1901 H   0  0  0  0  0  0  0  0  0 11  0  0
  2  1  1  0
  3  2  1  0
  3  1  1  0
  5  1  1  0
  6  1  1  0
  7  2  1  0
  8  2  1  0
  9  4  1  0
 10  4  1  0
 11  4  1  0
M  END
