
     RDKit          3D

 11 10  0  0  0  0  0  0  0  0999 V2000
   -0.0828   -0.2743   -1.2861 C   0  0  0  0  0  0  0  0  0  1  0  0
    0.3219    1.0264   -0.7602 C   0  0  0  0  0  0  0  0  0  2  0  0
    1.1446   -0.1303   -0.5595 O   0  0  0  0  0  0  0  0  0  3  0  0
   -0.7105   -0.4599    1.6770 N   0  0  0  0  0  0  0  0  0  4  0  0
    0.0464   -0.4958   -2.3395 H   0  0  0  0  0  0  0  0  0  5  0  0
   -0.8667   -0.8227   -0.7776 H   0  0  0  0  0  0  0  0  0  6  0  0
   -0.1725    1.4094    0.1244 H   0  0  0  0  0  0  0  0  0  7  0  0
    0.7513    1.7686   -1.4236 H   0  0  0  0  0  0  0  0  0  8  0  0
    0.2363   -0.6197    1.3704 H   0  0  0  0  0  0  0  0  0  9  0  0
    0.2367   -0.6202    1.3717 H   0  0  0  0  0  0  0  0  0 10  0  0
   -0.9026   -0.7834    2.6089 H   0  0  0  0  0  0  0  0  0 11  0  0
  2  1  1  0
  3  2  1  0
  3  1  1  0
  5  1  1  0
  6  1  1  0
  7  2  1  0
  8  2  1  0
  9  4  1  0
 10  4  1  0
 11  4  1  0
M  END
