
     RDKit          3D

 11 10  0  0  0  0  0  0  0  0999 V2000
    0.3281    0.1800   -1.9537 C   0  0  0  0  0  0  0  0  0  1  0  0
   -0.0107    0.8842   -0.7246 C   0  0  0  0  0  0  0  0  0  2  0  0
   -0.3515   -0.4955   -0.8923 O   0  0  0  0  0  0  0  0  0  3  0  0
   -0.4292   -1.0489    2.4137 N   0  0  0  0  0  0  0  0  0  4  0  0
    1.3525   -0.1336   -2.1272 H   0  0  0  0  0  0  0  0  0  5  0  0
   -0.2613    0.3496   -2.8490 H   0  0  0  0  0  0  0  0  0  6  0  0
   -0.8497    1.5723   -0.7089 H   0  0  0  0  0  0  0  0  0  7  0  0
   -0.4981   -0.9494    1.4079 H   0  0  0  0  0  0  0  0  0  8  0  0
   -0.5736   -0.1326    2.8131 H   0  0  0  0  0  0  0  0  0  9  0  0
    0.5239   -1.3131    2.6184 H   0  0  0  0  0  0  0  0  0 10  0  0
    0.7693    1.0838    0.0052 H   0  0  0  0  0  0  0  0  0 11  0  0
  2  1  1  0
  3  2  1  0
  3  1  1  0
  5  1  1  0
  6  1  1  0
  7  2  1  0
  8  4  1  0
  9  4  1  0
 10  4  1  0
 11  2  1  0
M  END
