
     RDKit          3D

 11 10  0  0  0  0  0  0  0  0999 V2000
   -0.4453   -0.9058   -0.7548 C   0  0  0  0  0  0  0  0  0  1  0  0
    0.3592   -0.1098   -1.6768 C   0  0  0  0  0  0  0  0  0  2  0  0
   -0.3430   -1.2685   -2.1303 O   0  0  0  0  0  0  0  0  0  3  0  0
   -0.0758    0.6961    2.1865 N   0  0  0  0  0  0  0  0  0  4  0  0
   -1.4152   -0.5369   -0.4331 H   0  0  0  0  0  0  0  0  0  5  0  0
    0.0462   -1.5718   -0.0513 H   0  0  0  0  0  0  0  0  0  6  0  0
    1.4419   -0.1960   -1.6607 H   0  0  0  0  0  0  0  0  0  7  0  0
   -0.0206    0.8398   -2.0426 H   0  0  0  0  0  0  0  0  0  8  0  0
    0.3497    0.9781    1.3124 H   0  0  0  0  0  0  0  0  0  9  0  0
   -0.6197    1.4837    2.5124 H   0  0  0  0  0  0  0  0  0 10  0  0
    0.6777    0.5684    2.8486 H   0  0  0  0  0  0  0  0  0 11  0  0
  2  1  1  0
  3  2  1  0
  3  1  1  0
  5  1  1  0
  6  1  1  0
  7  2  1  0
  8  2  1  0
  9  4  1  0
 10  4  1  0
 11  4  1  0
M  END
