
     RDKit          3D

 11  9  0  0  0  0  0  0  0  0999 V2000
    1.3066   -0.3394   -0.2095 C   0  0  0  0  0  0  0  0  0  1  0  0
   -2.0262    0.5311   -0.6006 C   0  0  0  0  0  0  0  0  0  2  0  0
   -2.0643    0.5806   -1.8053 O   0  0  0  0  0  0  0  0  0  3  0  0
    0.6286   -0.1719    1.0736 N   0  0  0  0  0  0  0  0  0  4  0  0
    0.7990   -1.1065   -0.7927 H   0  0  0  0  0  0  0  0  0  5  0  0
    1.2333    0.5831   -0.7837 H   0  0  0  0  0  0  0  0  0  6  0  0
   -1.7785    1.4168    0.0165 H   0  0  0  0  0  0  0  0  0  7  0  0
   -2.2457   -0.4013   -0.0443 H   0  0  0  0  0  0  0  0  0  8  0  0
    2.3675   -0.6127   -0.1442 H   0  0  0  0  0  0  0  0  0  9  0  0
    1.0942    0.5378    1.6237 H   0  0  0  0  0  0  0  0  0 10  0  0
    0.6906   -1.0242    1.6149 H   0  0  0  0  0  0  0  0  0 11  0  0
  3  2  2  0
  4  1  1  0
  5  1  1  0
  6  1  1  0
  7  2  1  0
  8  2  1  0
  9  1  1  0
 10  4  1  0
 11  4  1  0
M  END
