
     RDKit          3D

 11 10  0  0  0  0  0  0  0  0999 V2000
    0.3365   -0.4841   -0.3960 C   0  0  0  0  0  0  0  0  0  1  0  0
   -0.8249    0.4774   -0.5813 C   0  0  0  0  0  0  0  0  0  2  0  0
   -0.5062    1.7440   -0.0381 O   0  0  0  0  0  0  0  0  0  3  0  0
    0.7207   -0.4558    1.0171 N   0  0  0  0  0  0  0  0  0  4  0  0
    1.1795   -0.1265   -0.9889 H   0  0  0  0  0  0  0  0  0  5  0  0
    0.0731   -1.4825   -0.7726 H   0  0  0  0  0  0  0  0  0  6  0  0
   -1.7222    0.0585   -0.1020 H   0  0  0  0  0  0  0  0  0  7  0  0
   -1.0536    0.6069   -1.6404 H   0  0  0  0  0  0  0  0  0  8  0  0
    0.0433    1.5384    0.7393 H   0  0  0  0  0  0  0  0  0  9  0  0
    1.6296   -0.8705    1.1589 H   0  0  0  0  0  0  0  0  0 10  0  0
    0.0614   -0.9784    1.5789 H   0  0  0  0  0  0  0  0  0 11  0  0
  2  1  1  0
  3  2  1  0
  4  1  1  0
  5  1  1  0
  6  1  1  0
  7  2  1  0
  8  2  1  0
  9  3  1  0
 10  4  1  0
 11  4  1  0
M  END
