
     RDKit          3D

  8  7  0  0  0  0  0  0  0  0999 V2000
   -1.5181    0.4207    0.3686 O   0  0  0  0  0  0  0  0  0  1  0  0
   -0.2935   -0.1791    0.6246 C   0  0  0  0  0  0  0  0  0  2  0  0
    0.7385   -0.1563   -0.2674 C   0  0  0  0  0  0  0  0  0  3  0  0
    0.7381    0.3954   -1.4244 O   0  0  0  0  0  0  0  0  0  4  0  0
   -1.4697    0.8201   -0.5163 H   0  0  0  0  0  0  0  0  0  5  0  0
   -0.2495   -0.6535    1.5838 H   0  0  0  0  0  0  0  0  0  6  0  0
    0.4704    0.0394   -0.4583 H   0  0  0  0  0  0  0  0  0  7  0  0
    1.6570   -0.6814    0.0826 H   0  0  0  0  0  0  0  0  0  8  0  0
  2  1  1  0
  3  2  2  0
  4  3  1  0
  5  1  1  0
  6  2  1  0
  7  4  1  0
  8  3  1  0
M  END
