
     RDKit          3D

  8  8  0  0  0  0  0  0  0  0999 V2000
   -1.4756    0.1054   -0.3093 O   0  0  0  0  0  0  0  0  0  1  0  0
   -0.2383    0.2123    0.3057 C   0  0  1  0  0  0  0  0  0  2  0  0
    0.8676   -0.5529   -0.2339 C   0  0  0  0  0  0  0  0  0  3  0  0
    0.7845    0.8754   -0.4083 O   0  0  0  0  0  0  0  0  0  4  0  0
   -2.0180    0.8542   -0.0304 H   0  0  0  0  0  0  0  0  0  5  0  0
   -0.2772    0.4392    1.3706 H   0  0  0  0  0  0  0  0  0  6  0  0
    0.7086   -1.1341   -1.1349 H   0  0  0  0  0  0  0  0  0  7  0  0
    1.6635   -0.8993    0.4171 H   0  0  0  0  0  0  0  0  0  8  0  0
  2  1  1  0
  3  2  1  0
  4  3  1  0
  4  2  1  0
  5  1  1  0
  2  6  1  1
  7  3  1  0
  8  3  1  0
M  END
