
     RDKit          3D

  8  7  0  0  0  0  0  0  0  0999 V2000
   -1.3187    0.7662   -0.2683 O   0  0  0  0  0  3  0  0  0  1  0  0
   -0.3563    0.0834    0.3312 C   0  0  0  0  0  0  0  0  0  2  0  0
    0.9354   -0.1380   -0.2851 C   0  0  0  0  0  0  0  0  0  3  0  0
    1.4257    0.4312   -1.3031 O   0  0  0  0  0  1  0  0  0  4  0  0
   -2.1310    0.7531    0.2587 H   0  0  0  0  0  0  0  0  0  5  0  0
   -0.5891   -0.4648    1.2416 H   0  0  0  0  0  0  0  0  0  6  0  0
    0.3506   -1.1805   -0.4996 H   0  0  0  0  0  0  0  0  0  7  0  0
    1.6219   -0.4592    0.5479 H   0  0  0  0  0  0  0  0  0  8  0  0
  2  1  2  0
  3  2  1  0
  4  3  1  0
  5  1  1  0
  6  2  1  0
  7  3  1  0
  8  3  1  0
M  CHG  2   1   1   4  -1
M  END
