
     RDKit          3D

  8  7  0  0  0  0  0  0  0  0999 V2000
   -1.5522    0.4080    0.5426 O   0  0  0  0  0  0  0  0  0  1  0  0
   -0.2790   -0.1440    0.6154 C   0  0  0  0  0  0  0  0  0  2  0  0
    0.7425   -0.1433   -0.3637 C   0  0  0  0  0  0  0  0  0  3  0  0
    0.7487    0.3445   -1.5205 O   0  0  0  0  0  0  0  0  0  4  0  0
   -1.6365    0.8075   -0.3344 H   0  0  0  0  0  0  0  0  0  5  0  0
   -0.1541   -0.6090    1.5859 H   0  0  0  0  0  0  0  0  0  6  0  0
    0.4096   -0.0763   -0.2046 H   0  0  0  0  0  0  0  0  0  7  0  0
    1.7341   -0.6504   -0.1143 H   0  0  0  0  0  0  0  0  0  8  0  0
  2  1  1  0
  3  2  1  0
  4  3  2  0
  5  1  1  0
  6  2  1  0
  7  2  1  0
  8  3  1  0
M  END
