
     RDKit          3D

  8  7  0  0  0  0  0  0  0  0999 V2000
   -1.7772   -0.1573   -0.2185 O   0  0  0  0  0  0  0  0  0  1  0  0
   -0.5488    0.2422    0.2663 C   0  0  0  0  0  0  0  0  0  2  0  0
    0.5746   -0.2325   -0.2616 C   0  0  0  0  0  0  0  0  0  3  0  0
    1.8028    0.1642    0.2259 O   0  0  0  0  0  0  0  0  0  4  0  0
   -2.4580    0.3130    0.2722 H   0  0  0  0  0  0  0  0  0  5  0  0
   -0.5314    0.9499    1.0892 H   0  0  0  0  0  0  0  0  0  6  0  0
    0.5568   -0.9418   -1.0830 H   0  0  0  0  0  0  0  0  0  7  0  0
    2.4847   -0.2677   -0.2974 H   0  0  0  0  0  0  0  0  0  8  0  0
  2  1  1  0
  3  2  2  0
  4  3  1  0
  5  1  1  0
  6  2  1  0
  7  3  1  0
  8  4  1  0
M  END
