
     RDKit          3D

  8  7  0  0  0  0  0  0  0  0999 V2000
   -1.5361   -0.2122   -0.1680 O   0  0  0  0  0  3  0  0  0  1  0  0
   -0.3930    0.2867    0.2614 C   0  0  0  0  0  0  0  0  0  2  0  0
    0.8658   -0.1465   -0.3256 C   0  0  0  0  0  0  0  0  0  3  0  0
    1.8839    0.6454   -0.3440 O   0  0  0  0  0  1  0  0  0  4  0  0
   -2.2717    0.1623    0.3411 H   0  0  0  0  0  0  0  0  0  5  0  0
   -0.3649    0.9727    1.1034 H   0  0  0  0  0  0  0  0  0  6  0  0
    0.6186   -0.7233   -1.2557 H   0  0  0  0  0  0  0  0  0  7  0  0
    0.9754   -1.0253    0.4245 H   0  0  0  0  0  0  0  0  0  8  0  0
  2  1  2  0
  3  2  1  0
  4  3  1  0
  5  1  1  0
  6  2  1  0
  7  3  1  0
  8  3  1  0
M  CHG  2   1   1   4  -1
M  END
