
     RDKit          3D

  8  7  0  0  0  0  0  0  0  0999 V2000
   -1.2751    0.6535    1.0178 O   0  0  0  0  0  0  0  0  0  1  0  0
   -0.2685   -0.0657    0.8044 C   0  0  0  0  0  0  0  0  0  2  0  0
    0.4969   -0.2288   -0.3745 C   0  0  0  0  0  0  0  0  0  3  0  0
    0.3228    0.3769   -1.6131 O   0  0  0  0  0  0  0  0  0  4  0  0
   -0.4453    0.9600   -1.5362 H   0  0  0  0  0  0  0  0  0  5  0  0
    0.0327   -0.6559    1.7336 H   0  0  0  0  0  0  0  0  0  6  0  0
   -0.1578   -0.0191    0.4492 H   0  0  0  0  0  0  0  0  0  7  0  0
    1.3531   -0.8907   -0.4253 H   0  0  0  0  0  0  0  0  0  8  0  0
  2  1  2  0
  3  2  1  0
  4  3  1  0
  5  4  1  0
  6  2  1  0
  7  3  1  0
  8  3  1  0
M  END
