
     RDKit          3D

  8  7  0  0  0  0  0  0  0  0999 V2000
   -0.9056    0.8425    1.0700 O   0  0  0  0  0  0  0  0  0  1  0  0
   -0.7139    0.1582   -0.1024 C   0  0  0  0  0  0  0  0  0  2  0  0
    0.4658   -0.3653   -0.4248 C   0  0  0  0  0  0  0  0  0  3  0  0
    1.5574   -0.2494    0.3964 O   0  0  0  0  0  0  0  0  0  4  0  0
   -1.8191    1.1338    1.1050 H   0  0  0  0  0  0  0  0  0  5  0  0
   -1.5576    0.0487   -0.7728 H   0  0  0  0  0  0  0  0  0  6  0  0
    0.5845   -0.9017   -1.3583 H   0  0  0  0  0  0  0  0  0  7  0  0
    2.2987   -0.6940   -0.0199 H   0  0  0  0  0  0  0  0  0  8  0  0
  2  1  1  0
  3  2  2  0
  4  3  1  0
  5  1  1  0
  6  2  1  0
  7  3  1  0
  8  4  1  0
M  END
