
     RDKit          3D

  8  7  0  0  0  0  0  0  0  0999 V2000
   -1.5130   -0.3100   -0.0726 O   0  0  0  0  0  3  0  0  0  1  0  0
   -0.3807    0.2815    0.2564 C   0  0  0  0  0  0  0  0  0  2  0  0
    0.8692   -0.1264   -0.3665 C   0  0  0  0  0  0  0  0  0  3  0  0
    1.8379    0.7153   -0.4978 O   0  0  0  0  0  1  0  0  0  4  0  0
   -2.2429    0.0620    0.4463 H   0  0  0  0  0  0  0  0  0  5  0  0
   -0.3500    1.0307    1.0428 H   0  0  0  0  0  0  0  0  0  6  0  0
    0.6077   -0.7828   -1.2384 H   0  0  0  0  0  0  0  0  0  7  0  0
    1.0684   -0.9403    0.4368 H   0  0  0  0  0  0  0  0  0  8  0  0
  2  1  2  0
  3  2  1  0
  4  3  1  0
  5  1  1  0
  6  2  1  0
  7  3  1  0
  8  3  1  0
M  CHG  2   1   1   4  -1
M  END
