
     RDKit          3D

  8  7  0  0  0  0  0  0  0  0999 V2000
   -1.6105    0.0068    0.5826 O   0  0  0  0  0  0  0  0  0  1  0  0
   -0.4304   -0.1343    0.8211 C   0  0  0  0  0  0  0  0  0  2  0  0
    0.6118    0.0250   -0.2460 C   0  0  0  0  0  0  0  0  0  3  0  0
    0.0474    0.3437   -1.4853 O   0  0  0  0  0  0  0  0  0  4  0  0
   -0.9119    0.3800   -1.3265 H   0  0  0  0  0  0  0  0  0  5  0  0
   -0.0740   -0.3861    1.8384 H   0  0  0  0  0  0  0  0  0  6  0  0
    1.3209    0.7994    0.0851 H   0  0  0  0  0  0  0  0  0  7  0  0
    1.1936   -0.9085   -0.2958 H   0  0  0  0  0  0  0  0  0  8  0  0
  2  1  2  0
  3  2  1  0
  4  3  1  0
  5  4  1  0
  6  2  1  0
  7  3  1  0
  8  3  1  0
M  END
