
     RDKit          3D

  8  7  0  0  0  0  0  0  0  0999 V2000
   -1.5807    0.4176    0.4276 O   0  0  0  0  0  0  0  0  0  1  0  0
   -0.3225   -0.1503    0.5878 C   0  0  0  0  0  0  0  0  0  2  0  0
    0.7692   -0.1467   -0.3124 C   0  0  0  0  0  0  0  0  0  3  0  0
    0.8667    0.3606   -1.4566 O   0  0  0  0  0  0  0  0  0  4  0  0
   -1.5926    0.8337   -0.4459 H   0  0  0  0  0  0  0  0  0  5  0  0
   -0.2754   -0.6312    1.5575 H   0  0  0  0  0  0  0  0  0  6  0  0
    0.4268   -0.0779   -0.1766 H   0  0  0  0  0  0  0  0  0  7  0  0
    1.7333   -0.6716    0.0001 H   0  0  0  0  0  0  0  0  0  8  0  0
  2  1  1  0
  3  2  1  0
  4  3  2  0
  5  1  1  0
  6  2  1  0
  7  2  1  0
  8  3  1  0
M  END
