
     RDKit          3D

 16 14  0  0  0  0  0  0  0  0999 V2000
   -0.2513    0.8416   -2.2637 C   0  0  0  0  0  0  0  0  0  1  0  0
    0.3414    0.0359   -1.3828 C   0  0  0  0  0  0  0  0  0  2  0  0
    0.1278   -1.3887   -1.2960 C   0  0  0  0  0  0  0  0  0  3  0  0
    0.7686   -2.1843   -0.4384 C   0  0  0  0  0  0  0  0  0  4  0  0
   -0.6698    1.6853    2.0022 C   0  0  0  0  0  0  0  0  0  5  0  0
   -0.1749    0.5781    2.5315 C   0  0  0  0  0  0  0  0  0  6  0  0
   -0.9507    0.4608   -2.9988 H   0  0  0  0  0  0  0  0  0  7  0  0
   -0.0584    1.9047   -2.2883 H   0  0  0  0  0  0  0  0  0  8  0  0
    1.0312    0.4598   -0.6614 H   0  0  0  0  0  0  0  0  0  9  0  0
   -0.5995   -1.8219   -1.9791 H   0  0  0  0  0  0  0  0  0 10  0  0
    1.5108   -1.7870    0.2424 H   0  0  0  0  0  0  0  0  0 11  0  0
    0.5815   -3.2469   -0.3912 H   0  0  0  0  0  0  0  0  0 12  0  0
   -1.5214    1.6534    1.3363 H   0  0  0  0  0  0  0  0  0 13  0  0
   -0.2490    2.6632    2.2003 H   0  0  0  0  0  0  0  0  0 14  0  0
   -0.6088   -0.3865    2.3082 H   0  0  0  0  0  0  0  0  0 15  0  0
    0.6768    0.5820    3.2003 H   0  0  0  0  0  0  0  0  0 16  0  0
  2  1  2  0
  3  2  1  0
  4  3  2  0
  6  5  2  0
  7  1  1  0
  8  1  1  0
  9  2  1  0
 10  3  1  0
 11  4  1  0
 12  4  1  0
 13  5  1  0
 14  5  1  0
 15  6  1  0
 16  6  1  0
M  END
