
     RDKit          3D

 16 15  0  0  0  0  0  0  0  0999 V2000
    0.3883   -0.4951   -1.7222 C   0  0  0  0  0  0  0  0  0  1  0  0
   -0.2506   -0.3407   -0.3345 C   0  0  0  0  0  0  0  0  0  2  0  0
   -0.3163    1.1051    0.0443 C   0  0  0  0  0  0  0  0  0  3  0  0
   -1.4402    1.7775    0.2459 C   0  0  0  0  0  0  0  0  0  4  0  0
    0.4851   -1.1880    0.6716 C   0  0  0  0  0  0  0  0  0  5  0  0
    0.9890   -0.7915    1.8324 C   0  0  0  0  0  0  0  0  0  6  0  0
   -0.1903    0.0378   -2.4748 H   0  0  0  0  0  0  0  0  0  7  0  0
    0.4391   -1.5444   -2.0131 H   0  0  0  0  0  0  0  0  0  8  0  0
   -1.2747   -0.7241   -0.3995 H   0  0  0  0  0  0  0  0  0  9  0  0
    0.6387    1.6170    0.1309 H   0  0  0  0  0  0  0  0  0 10  0  0
   -2.4022    1.2886    0.1640 H   0  0  0  0  0  0  0  0  0 11  0  0
   -1.4489    2.8281    0.5031 H   0  0  0  0  0  0  0  0  0 12  0  0
    1.4022   -0.0959   -1.7244 H   0  0  0  0  0  0  0  0  0 13  0  0
    0.5989   -2.2291    0.3850 H   0  0  0  0  0  0  0  0  0 14  0  0
    0.8862    0.2279    2.1759 H   0  0  0  0  0  0  0  0  0 15  0  0
    1.5110   -1.4727    2.4903 H   0  0  0  0  0  0  0  0  0 16  0  0
  2  1  1  0
  3  2  1  0
  4  3  2  0
  5  2  1  0
  6  5  2  0
  7  1  1  0
  8  1  1  0
  9  2  1  0
 10  3  1  0
 11  4  1  0
 12  4  1  0
 13  1  1  0
 14  5  1  0
 15  6  1  0
 16  6  1  0
M  END
