
     RDKit          3D

 16 15  0  0  0  0  0  0  0  0999 V2000
    0.9352    0.0070   -1.5868 C   0  0  0  0  0  0  0  0  0  1  0  0
    0.1460   -0.4028   -0.3348 C   0  0  0  0  0  0  0  0  0  2  0  0
   -1.0244    0.5088   -0.1419 C   0  0  0  0  0  0  0  0  0  3  0  0
   -2.2913    0.1233   -0.1892 C   0  0  0  0  0  0  0  0  0  4  0  0
    1.0624   -0.4576    0.8602 C   0  0  0  0  0  0  0  0  0  5  0  0
    0.8877    0.1449    2.0286 C   0  0  0  0  0  0  0  0  0  6  0  0
    0.3048   -0.0410   -2.4730 H   0  0  0  0  0  0  0  0  0  7  0  0
    1.7897   -0.6518   -1.7420 H   0  0  0  0  0  0  0  0  0  8  0  0
   -0.2342   -1.4163   -0.5030 H   0  0  0  0  0  0  0  0  0  9  0  0
   -0.7876    1.5566    0.0243 H   0  0  0  0  0  0  0  0  0 10  0  0
   -2.5501   -0.9146   -0.3542 H   0  0  0  0  0  0  0  0  0 11  0  0
   -3.1129    0.8152   -0.0618 H   0  0  0  0  0  0  0  0  0 12  0  0
    1.3094    1.0258   -1.4879 H   0  0  0  0  0  0  0  0  0 13  0  0
    1.9522   -1.0632    0.7163 H   0  0  0  0  0  0  0  0  0 14  0  0
    0.0105    0.7424    2.2324 H   0  0  0  0  0  0  0  0  0 15  0  0
    1.6071    0.0542    2.8307 H   0  0  0  0  0  0  0  0  0 16  0  0
  2  1  1  0
  3  2  1  0
  4  3  2  0
  5  2  1  0
  6  5  2  0
  7  1  1  0
  8  1  1  0
  9  2  1  0
 10  3  1  0
 11  4  1  0
 12  4  1  0
 13  1  1  0
 14  5  1  0
 15  6  1  0
 16  6  1  0
M  END
