
     RDKit          3D

 16 16  0  0  0  0  0  0  0  0999 V2000
    0.2308    0.5808   -2.5873 C   0  0  0  0  0  0  0  0  0  1  0  0
    0.3196   -0.1323   -1.4721 C   0  0  0  0  0  0  0  0  0  2  0  0
   -0.0835    0.3217   -0.1231 C   0  0  0  0  0  0  0  0  0  3  0  0
   -1.0842   -0.5489    0.6824 C   0  0  0  0  0  0  0  0  0  4  0  0
    0.9220    0.1488    1.0453 C   0  0  0  0  0  0  0  0  0  5  0  0
   -0.2441   -0.2961    1.9487 C   0  0  0  0  0  0  0  0  0  6  0  0
   -0.1599    1.5916   -2.5861 H   0  0  0  0  0  0  0  0  0  7  0  0
    0.5431    0.1868   -3.5431 H   0  0  0  0  0  0  0  0  0  8  0  0
    0.7190   -1.1431   -1.5304 H   0  0  0  0  0  0  0  0  0  9  0  0
   -0.4367    1.3537   -0.1630 H   0  0  0  0  0  0  0  0  0 10  0  0
   -1.0397   -1.5894    0.3600 H   0  0  0  0  0  0  0  0  0 11  0  0
   -2.1253   -0.2286    0.6855 H   0  0  0  0  0  0  0  0  0 12  0  0
    1.4923    1.0284    1.3408 H   0  0  0  0  0  0  0  0  0 13  0  0
    1.6178   -0.6654    0.8412 H   0  0  0  0  0  0  0  0  0 14  0  0
   -0.6380    0.5318    2.5345 H   0  0  0  0  0  0  0  0  0 15  0  0
   -0.0714   -1.1392    2.6145 H   0  0  0  0  0  0  0  0  0 16  0  0
  2  1  2  0
  3  2  1  0
  4  3  1  0
  5  3  1  0
  6  5  1  0
  6  4  1  0
  7  1  1  0
  8  1  1  0
  9  2  1  0
 10  3  1  0
 11  4  1  0
 12  4  1  0
 13  5  1  0
 14  5  1  0
 15  6  1  0
 16  6  1  0
M  END
