
     RDKit          3D

 16 17  0  0  0  0  0  0  0  0999 V2000
    1.3579    0.8567   -1.0100 C   0  0  0  0  0  0  0  0  0  1  0  0
    0.4409   -0.3166   -0.8584 C   0  0  0  0  0  0  0  0  0  2  0  0
   -0.9447   -0.1469   -0.3385 C   0  0  0  0  0  0  0  0  0  3  0  0
   -1.4292   -0.9188    0.8488 C   0  0  0  0  0  0  0  0  0  4  0  0
   -1.2508    0.5629    0.9392 C   0  0  0  0  0  0  0  0  0  5  0  0
    1.6532   -0.1996    0.0060 C   0  0  0  0  0  0  0  0  0  6  0  0
    0.9953    1.8067   -0.6442 H   0  0  0  0  0  0  0  0  0  7  0  0
    1.9832    0.9257   -1.8889 H   0  0  0  0  0  0  0  0  0  8  0  0
    0.5081   -1.0682   -1.6367 H   0  0  0  0  0  0  0  0  0  9  0  0
   -1.6725    0.0044   -1.1275 H   0  0  0  0  0  0  0  0  0 10  0  0
   -0.7031   -1.5357    1.3587 H   0  0  0  0  0  0  0  0  0 11  0  0
   -2.4309   -1.3245    0.8377 H   0  0  0  0  0  0  0  0  0 12  0  0
   -2.1369    1.1819    0.9666 H   0  0  0  0  0  0  0  0  0 13  0  0
   -0.4381    0.9468    1.5393 H   0  0  0  0  0  0  0  0  0 14  0  0
    2.4728   -0.8774   -0.1889 H   0  0  0  0  0  0  0  0  0 15  0  0
    1.5364    0.0458    1.0520 H   0  0  0  0  0  0  0  0  0 16  0  0
  2  1  1  0
  3  2  1  0
  4  3  1  0
  5  4  1  0
  5  3  1  0
  6  2  1  0
  6  1  1  0
  7  1  1  0
  8  1  1  0
  9  2  1  0
 10  3  1  0
 11  4  1  0
 12  4  1  0
 13  5  1  0
 14  5  1  0
 15  6  1  0
 16  6  1  0
M  END
