
     RDKit          3D

 16 14  0  0  0  0  0  0  0  0999 V2000
   -0.5252   -0.5693   -2.2716 C   0  0  0  0  0  0  0  0  0  1  0  0
   -0.1897    0.3496   -1.3660 C   0  0  0  0  0  0  0  0  0  2  0  0
    1.1152    0.9543   -1.2490 C   0  0  0  0  0  0  0  0  0  3  0  0
    1.4199    1.8952   -0.3542 C   0  0  0  0  0  0  0  0  0  4  0  0
   -0.4819   -0.5668    2.4750 C   0  0  0  0  0  0  0  0  0  5  0  0
   -1.0172   -1.5928    1.8332 C   0  0  0  0  0  0  0  0  0  6  0  0
    0.1858   -0.9261   -3.0076 H   0  0  0  0  0  0  0  0  0  7  0  0
   -1.5183   -0.9942   -2.3147 H   0  0  0  0  0  0  0  0  0  8  0  0
   -0.9321    0.6753   -0.6459 H   0  0  0  0  0  0  0  0  0  9  0  0
    1.8821    0.6119   -1.9401 H   0  0  0  0  0  0  0  0  0 10  0  0
    0.6760    2.2698    0.3376 H   0  0  0  0  0  0  0  0  0 11  0  0
    2.4093    2.3226   -0.2857 H   0  0  0  0  0  0  0  0  0 12  0  0
    0.5638   -0.3204    2.3524 H   0  0  0  0  0  0  0  0  0 13  0  0
   -1.0537    0.0684    3.1398 H   0  0  0  0  0  0  0  0  0 14  0  0
   -0.4233   -2.2060    1.1694 H   0  0  0  0  0  0  0  0  0 15  0  0
   -2.0623   -1.8591    1.9298 H   0  0  0  0  0  0  0  0  0 16  0  0
  2  1  2  0
  3  2  1  0
  4  3  2  0
  6  5  2  0
  7  1  1  0
  8  1  1  0
  9  2  1  0
 10  3  1  0
 11  4  1  0
 12  4  1  0
 13  5  1  0
 14  5  1  0
 15  6  1  0
 16  6  1  0
M  END
