
     RDKit          3D

 16 14  0  0  0  0  0  0  0  0999 V2000
    0.2379    0.6650   -2.2906 C   0  0  0  0  0  0  0  0  0  1  0  0
    0.4044   -0.5220   -1.7058 C   0  0  0  0  0  0  0  0  0  2  0  0
   -0.5648   -1.1385   -0.8324 C   0  0  0  0  0  0  0  0  0  3  0  0
   -0.3798   -2.2892   -0.1835 C   0  0  0  0  0  0  0  0  0  4  0  0
   -0.5075    1.4563    2.2546 C   0  0  0  0  0  0  0  0  0  5  0  0
    0.7601    1.2775    1.9190 C   0  0  0  0  0  0  0  0  0  6  0  0
   -0.6572    1.2526   -2.1271 H   0  0  0  0  0  0  0  0  0  7  0  0
    0.9878    1.0910   -2.9409 H   0  0  0  0  0  0  0  0  0  8  0  0
    1.3234   -1.0749   -1.8804 H   0  0  0  0  0  0  0  0  0  9  0  0
   -1.4990   -0.6022   -0.6992 H   0  0  0  0  0  0  0  0  0 10  0  0
    0.5437   -2.8498   -0.2741 H   0  0  0  0  0  0  0  0  0 11  0  0
   -1.1389   -2.7060    0.4618 H   0  0  0  0  0  0  0  0  0 12  0  0
   -0.7988    2.0830    3.0877 H   0  0  0  0  0  0  0  0  0 13  0  0
   -1.3129    0.9818    1.7081 H   0  0  0  0  0  0  0  0  0 14  0  0
    1.5701    1.7479    2.4634 H   0  0  0  0  0  0  0  0  0 15  0  0
    1.0402    0.6525    1.0836 H   0  0  0  0  0  0  0  0  0 16  0  0
  2  1  2  0
  3  2  1  0
  4  3  2  0
  6  5  2  0
  7  1  1  0
  8  1  1  0
  9  2  1  0
 10  3  1  0
 11  4  1  0
 12  4  1  0
 13  5  1  0
 14  5  1  0
 15  6  1  0
 16  6  1  0
M  END
