
     RDKit          3D

 16 14  0  0  0  0  0  0  0  0999 V2000
    0.6804    0.4114   -2.2697 C   0  0  0  0  0  0  0  0  0  1  0  0
   -0.2559   -0.3477   -1.6972 C   0  0  0  0  0  0  0  0  0  2  0  0
   -1.2707    0.1462   -0.7976 C   0  0  0  0  0  0  0  0  0  3  0  0
   -2.1693   -0.6173   -0.1753 C   0  0  0  0  0  0  0  0  0  4  0  0
    1.6365    0.5477    1.6529 C   0  0  0  0  0  0  0  0  0  5  0  0
    0.8827   -0.2029    2.4385 C   0  0  0  0  0  0  0  0  0  6  0  0
    0.7362    1.4762   -2.0758 H   0  0  0  0  0  0  0  0  0  7  0  0
    1.4192    0.0006   -2.9431 H   0  0  0  0  0  0  0  0  0  8  0  0
   -0.2670   -1.4156   -1.9035 H   0  0  0  0  0  0  0  0  0  9  0  0
   -1.2811    1.2174   -0.6184 H   0  0  0  0  0  0  0  0  0 10  0  0
   -2.1990   -1.6909   -0.3190 H   0  0  0  0  0  0  0  0  0 11  0  0
   -2.9007   -0.2001    0.5024 H   0  0  0  0  0  0  0  0  0 12  0  0
    1.7679    1.6097    1.8148 H   0  0  0  0  0  0  0  0  0 13  0  0
    2.1469    0.1237    0.8003 H   0  0  0  0  0  0  0  0  0 14  0  0
    0.3566    0.2018    3.2937 H   0  0  0  0  0  0  0  0  0 15  0  0
    0.7557   -1.2608    2.2492 H   0  0  0  0  0  0  0  0  0 16  0  0
  2  1  2  0
  3  2  1  0
  4  3  2  0
  6  5  2  0
  7  1  1  0
  8  1  1  0
  9  2  1  0
 10  3  1  0
 11  4  1  0
 12  4  1  0
 13  5  1  0
 14  5  1  0
 15  6  1  0
 16  6  1  0
M  END
