
     RDKit          3D

 16 14  0  0  0  0  0  0  0  0999 V2000
    0.3339    0.6418   -2.3488 C   0  0  0  0  0  0  0  0  0  1  0  0
    0.3702   -0.4802   -1.6278 C   0  0  0  0  0  0  0  0  0  2  0  0
   -0.7420   -1.0053   -0.8737 C   0  0  0  0  0  0  0  0  0  3  0  0
   -0.7006   -2.1091   -0.1262 C   0  0  0  0  0  0  0  0  0  4  0  0
   -0.1947    1.0869    2.4713 C   0  0  0  0  0  0  0  0  0  5  0  0
    0.8066    1.3566    1.6503 C   0  0  0  0  0  0  0  0  0  6  0  0
   -0.5676    1.2395   -2.4152 H   0  0  0  0  0  0  0  0  0  7  0  0
    1.1964    1.0000   -2.8920 H   0  0  0  0  0  0  0  0  0  8  0  0
    1.2993   -1.0422   -1.5766 H   0  0  0  0  0  0  0  0  0  9  0  0
   -1.6674   -0.4379   -0.9213 H   0  0  0  0  0  0  0  0  0 10  0  0
    0.1998   -2.7069   -0.0485 H   0  0  0  0  0  0  0  0  0 11  0  0
   -1.5592   -2.4505    0.4344 H   0  0  0  0  0  0  0  0  0 12  0  0
   -0.0887    0.3937    3.2968 H   0  0  0  0  0  0  0  0  0 13  0  0
   -1.1662    1.5495    2.3496 H   0  0  0  0  0  0  0  0  0 14  0  0
    0.6885    2.0323    0.8156 H   0  0  0  0  0  0  0  0  0 15  0  0
    1.7829    0.9068    1.7680 H   0  0  0  0  0  0  0  0  0 16  0  0
  2  1  2  0
  3  2  1  0
  4  3  2  0
  6  5  2  0
  7  1  1  0
  8  1  1  0
  9  2  1  0
 10  3  1  0
 11  4  1  0
 12  4  1  0
 13  5  1  0
 14  5  1  0
 15  6  1  0
 16  6  1  0
M  END
