
     RDKit          3D

 16 16  0  0  0  0  0  0  0  0999 V2000
   -0.6938    1.1182   -1.8578 C   0  0  0  0  0  3  0  0  0  1  0  0
   -0.0989    0.3932   -0.7757 C   0  0  2  0  0  0  0  0  0  2  0  0
    0.0214   -1.0453   -0.6976 C   0  0  0  0  0  3  0  0  0  3  0  0
    0.4740   -1.4179    0.6645 C   0  0  0  0  0  0  0  0  0  4  0  0
   -0.1009    0.9363    0.6722 C   0  0  0  0  0  0  0  0  0  5  0  0
   -0.0870   -0.3194    1.5596 C   0  0  0  0  0  0  0  0  0  6  0  0
   -0.7617    0.6582   -2.8338 H   0  0  0  0  0  0  0  0  0  7  0  0
   -0.7096    2.1965   -1.8171 H   0  0  0  0  0  0  0  0  0  8  0  0
    0.9557    0.5422   -1.1732 H   0  0  0  0  0  0  0  0  0  9  0  0
    0.1130   -1.6414   -1.5947 H   0  0  0  0  0  0  0  0  0 10  0  0
    1.5747   -1.4189    0.7215 H   0  0  0  0  0  0  0  0  0 11  0  0
    0.1675   -2.4191    0.9603 H   0  0  0  0  0  0  0  0  0 12  0  0
   -0.9696    1.5670    0.8691 H   0  0  0  0  0  0  0  0  0 13  0  0
    0.7802    1.5519    0.8561 H   0  0  0  0  0  0  0  0  0 14  0  0
   -1.1064   -0.5736    1.8518 H   0  0  0  0  0  0  0  0  0 15  0  0
    0.4873   -0.1775    2.4734 H   0  0  0  0  0  0  0  0  0 16  0  0
  2  1  1  0
  3  2  1  0
  4  3  1  0
  5  2  1  0
  6  5  1  0
  6  4  1  0
  7  1  1  0
  8  1  1  0
  2  9  1  6
 10  3  1  0
 11  4  1  0
 12  4  1  0
 13  5  1  0
 14  5  1  0
 15  6  1  0
 16  6  1  0
M  CHG  2   1  -1   3   1
M  END
