
     RDKit          3D

 16 14  0  0  0  0  0  0  0  0999 V2000
    0.4897   -0.0789   -2.2139 C   0  0  0  0  0  0  0  0  0  1  0  0
   -0.4071   -0.3304   -1.2599 C   0  0  0  0  0  0  0  0  0  2  0  0
   -1.5530    0.4926   -0.9565 C   0  0  0  0  0  0  0  0  0  3  0  0
   -2.4127    0.2313    0.0294 C   0  0  0  0  0  0  0  0  0  4  0  0
    2.1235   -0.1375    1.4374 C   0  0  0  0  0  0  0  0  0  5  0  0
    1.1039   -0.1351    2.2817 C   0  0  0  0  0  0  0  0  0  6  0  0
    0.4130    0.7902   -2.8561 H   0  0  0  0  0  0  0  0  0  7  0  0
    1.3363   -0.7299   -2.3815 H   0  0  0  0  0  0  0  0  0  8  0  0
   -0.2737   -1.2067   -0.6349 H   0  0  0  0  0  0  0  0  0  9  0  0
   -1.7067    1.3757   -1.5730 H   0  0  0  0  0  0  0  0  0 10  0  0
   -2.2901   -0.6396    0.6618 H   0  0  0  0  0  0  0  0  0 11  0  0
   -3.2577    0.8710    0.2372 H   0  0  0  0  0  0  0  0  0 12  0  0
    2.2123    0.6198    0.6710 H   0  0  0  0  0  0  0  0  0 13  0  0
    2.8965   -0.8950    1.4611 H   0  0  0  0  0  0  0  0  0 14  0  0
    0.3497    0.6385    2.2381 H   0  0  0  0  0  0  0  0  0 15  0  0
    0.9718   -0.8968    3.0402 H   0  0  0  0  0  0  0  0  0 16  0  0
  2  1  2  0
  3  2  1  0
  4  3  2  0
  6  5  2  0
  7  1  1  0
  8  1  1  0
  9  2  1  0
 10  3  1  0
 11  4  1  0
 12  4  1  0
 13  5  1  0
 14  5  1  0
 15  6  1  0
 16  6  1  0
M  END
