
     RDKit          3D

 16 16  0  0  0  0  0  0  0  0999 V2000
   -0.6036   -0.9771   -1.1227 C   0  0  0  0  0  0  0  0  0  1  0  0
   -0.3222    0.4530   -1.4016 C   0  0  0  0  0  0  0  0  0  2  0  0
    0.8677    0.8430   -0.9009 C   0  0  0  0  0  0  0  0  0  3  0  0
    0.7527    1.3286    0.4968 C   0  0  0  0  0  0  0  0  0  4  0  0
    0.3351   -0.0348    1.1918 C   0  0  0  0  0  0  0  0  0  5  0  0
   -0.7267   -0.8931    0.4565 C   0  0  0  0  0  0  0  0  0  6  0  0
    0.2265   -1.6277   -1.3950 H   0  0  0  0  0  0  0  0  0  7  0  0
   -1.5247   -1.3909   -1.5325 H   0  0  0  0  0  0  0  0  0  8  0  0
   -1.1709    1.1033   -1.1895 H   0  0  0  0  0  0  0  0  0  9  0  0
    1.7014    0.1561   -1.0472 H   0  0  0  0  0  0  0  0  0 10  0  0
   -0.0410    2.0644    0.6198 H   0  0  0  0  0  0  0  0  0 11  0  0
    1.6600    1.7073    0.9667 H   0  0  0  0  0  0  0  0  0 12  0  0
    1.2512   -0.6183    1.3020 H   0  0  0  0  0  0  0  0  0 13  0  0
   -0.0292    0.1622    2.2028 H   0  0  0  0  0  0  0  0  0 14  0  0
   -0.7050   -1.8987    0.8833 H   0  0  0  0  0  0  0  0  0 15  0  0
   -1.7193   -0.4901    0.6672 H   0  0  0  0  0  0  0  0  0 16  0  0
  2  1  1  0
  3  2  2  0
  4  3  1  0
  5  4  1  0
  6  5  1  0
  6  1  1  0
  7  1  1  0
  8  1  1  0
  9  2  1  0
 10  3  1  0
 11  4  1  0
 12  4  1  0
 13  5  1  0
 14  5  1  0
 15  6  1  0
 16  6  1  0
M  END
