
     RDKit          3D

 16 16  0  0  0  0  0  0  0  0999 V2000
    1.0596    0.5403   -1.0804 C   0  0  0  0  0  0  0  0  0  1  0  0
    0.1355   -0.5792   -1.3901 C   0  0  0  0  0  0  0  0  0  2  0  0
   -1.1189   -0.3344   -0.9596 C   0  0  0  0  0  0  0  0  0  3  0  0
   -1.3294   -0.7906    0.4369 C   0  0  0  0  0  0  0  0  0  4  0  0
   -0.3420    0.2128    1.1677 C   0  0  0  0  0  0  0  0  0  5  0  0
    1.0408    0.4362    0.5021 C   0  0  0  0  0  0  0  0  0  6  0  0
    0.6646    1.5064   -1.3924 H   0  0  0  0  0  0  0  0  0  7  0  0
    2.0864    0.4487   -1.4337 H   0  0  0  0  0  0  0  0  0  8  0  0
    0.5493   -1.5563   -1.1398 H   0  0  0  0  0  0  0  0  0  9  0  0
   -1.5037    0.6692   -1.1426 H   0  0  0  0  0  0  0  0  0 10  0  0
   -0.9997   -1.8166    0.5960 H   0  0  0  0  0  0  0  0  0 11  0  0
   -2.3304   -0.6738    0.8515 H   0  0  0  0  0  0  0  0  0 12  0  0
   -0.8660    1.1685    1.2315 H   0  0  0  0  0  0  0  0  0 13  0  0
   -0.1743   -0.1161    2.1960 H   0  0  0  0  0  0  0  0  0 14  0  0
    1.7015   -0.3925    0.7644 H   0  0  0  0  0  0  0  0  0 15  0  0
    1.4853    1.3344    0.9371 H   0  0  0  0  0  0  0  0  0 16  0  0
  2  1  1  0
  3  2  2  0
  4  3  1  0
  5  4  1  0
  6  5  1  0
  6  1  1  0
  7  1  1  0
  8  1  1  0
  9  2  1  0
 10  3  1  0
 11  4  1  0
 12  4  1  0
 13  5  1  0
 14  5  1  0
 15  6  1  0
 16  6  1  0
M  END
