
     RDKit          3D

 16 16  0  0  0  0  0  0  0  0999 V2000
    0.7099   -0.6176   -1.9344 C   0  0  0  0  0  0  0  0  0  1  0  0
   -0.0285   -0.2635   -0.6569 C   0  0  0  0  0  0  0  0  0  2  0  0
   -0.2885    1.1245   -0.2931 C   0  0  0  0  0  3  0  0  0  3  0  0
   -0.6865    1.0980    1.1501 C   0  0  0  0  0  0  0  0  0  4  0  0
    0.1786   -1.0279    0.5507 C   0  0  0  0  0  3  0  0  0  5  0  0
    0.1046   -0.0943    1.7111 C   0  0  0  0  0  0  0  0  0  6  0  0
    0.3038   -0.0627   -2.7777 H   0  0  0  0  0  0  0  0  0  7  0  0
    0.6305   -1.6826   -2.1468 H   0  0  0  0  0  0  0  0  0  8  0  0
   -1.1025   -0.5484   -0.8361 H   0  0  0  0  0  0  0  0  0  9  0  0
   -0.6844    1.8170   -1.0216 H   0  0  0  0  0  0  0  0  0 10  0  0
   -1.7678    0.8899    1.2665 H   0  0  0  0  0  0  0  0  0 11  0  0
   -0.5035    2.0257    1.6905 H   0  0  0  0  0  0  0  0  0 12  0  0
    1.7670   -0.3677   -1.8422 H   0  0  0  0  0  0  0  0  0 13  0  0
    0.5749   -2.0306    0.5472 H   0  0  0  0  0  0  0  0  0 14  0  0
    1.1093    0.2582    2.0004 H   0  0  0  0  0  0  0  0  0 15  0  0
   -0.3321   -0.5184    2.6171 H   0  0  0  0  0  0  0  0  0 16  0  0
  2  1  1  0
  3  2  1  0
  4  3  1  0
  5  2  1  0
  6  5  1  0
  6  4  1  0
  7  1  1  0
  8  1  1  0
  9  2  1  0
 10  3  1  0
 11  4  1  0
 12  4  1  0
 13  1  1  0
 14  5  1  0
 15  6  1  0
 16  6  1  0
M  CHG  2   3  -1   5   1
M  END
