
     RDKit          3D

 16 15  0  0  0  0  0  0  0  0999 V2000
   -0.7746    0.8972   -1.5322 O   0  0  0  0  0  0  0  0  0  1  0  0
   -0.2597   -0.3433   -1.4479 C   0  0  1  0  0  0  0  0  0  2  0  0
    1.1320   -0.4794   -2.0168 C   0  0  0  0  0  0  0  0  0  3  0  0
    1.9749    0.5840   -1.6340 O   0  0  0  0  0  0  0  0  0  4  0  0
   -0.1249   -0.6877    0.1266 O   0  0  0  0  0  3  0  0  0  5  0  0
   -0.5905    0.2605    0.8302 C   0  0  0  0  0  3  0  0  0  6  0  0
   -0.4828   -0.0062    2.3017 C   0  0  0  0  0  0  0  0  0  7  0  0
   -1.5897    0.5731    2.9665 O   0  0  0  0  0  0  0  0  0  8  0  0
   -0.9427   -1.1407   -1.7631 H   0  0  0  0  0  0  0  0  0  9  0  0
    1.5840   -1.4135   -1.6806 H   0  0  0  0  0  0  0  0  0 10  0  0
    1.0237   -0.5387   -3.1106 H   0  0  0  0  0  0  0  0  0 11  0  0
    1.4238    1.3782   -1.6679 H   0  0  0  0  0  0  0  0  0 12  0  0
   -0.9451    1.1433   -0.5151 H   0  0  0  0  0  0  0  0  0 13  0  0
   -0.3679   -1.0763    2.5016 H   0  0  0  0  0  0  0  0  0 14  0  0
    0.4573    0.4915    2.5886 H   0  0  0  0  0  0  0  0  0 15  0  0
   -1.5180    0.3888    3.9111 H   0  0  0  0  0  0  0  0  0 16  0  0
  2  1  1  0
  3  2  1  0
  4  3  1  0
  5  2  1  0
  6  5  2  0
  7  6  1  0
  8  7  1  0
  2  9  1  6
 10  3  1  0
 11  3  1  0
 12  4  1  0
 13  1  1  0
 14  7  1  0
 15  7  1  0
 16  8  1  0
M  CHG  2   5   1   6  -1
M  END
