
     RDKit          3D

 16 14  0  0  0  0  0  0  0  0999 V2000
   -0.7258    1.0143   -2.7504 O   0  0  0  0  0  0  0  0  0  1  0  0
   -0.2611   -0.1054   -2.6834 C   0  0  0  0  0  0  0  0  0  2  0  0
    1.1463   -0.3412   -2.2392 C   0  0  0  0  0  0  0  0  0  3  0  0
    1.8251    0.8603   -1.9984 O   0  0  0  0  0  0  0  0  0  4  0  0
   -0.0194   -1.2626    0.7781 O   0  0  0  0  0  0  0  0  0  5  0  0
   -0.4951   -0.2966    1.3270 C   0  0  0  0  0  0  0  0  0  6  0  0
   -0.4900   -0.1017    2.8168 C   0  0  0  0  0  0  0  0  0  7  0  0
   -1.5119    0.8242    3.1422 O   0  0  0  0  0  0  0  0  0  8  0  0
   -0.8711   -0.9932   -2.9471 H   0  0  0  0  0  0  0  0  0  9  0  0
    1.1089   -0.9645   -1.3342 H   0  0  0  0  0  0  0  0  0 10  0  0
    1.6572   -0.9445   -3.0055 H   0  0  0  0  0  0  0  0  0 11  0  0
    1.1744    1.5582   -2.1885 H   0  0  0  0  0  0  0  0  0 12  0  0
   -0.9586    0.5351    0.7617 H   0  0  0  0  0  0  0  0  0 13  0  0
   -0.6126   -1.0756    3.2984 H   0  0  0  0  0  0  0  0  0 14  0  0
    0.5114    0.2713    3.0746 H   0  0  0  0  0  0  0  0  0 15  0  0
   -1.4777    0.9914    4.0897 H   0  0  0  0  0  0  0  0  0 16  0  0
  2  1  2  0
  3  2  1  0
  4  3  1  0
  6  5  2  0
  7  6  1  0
  8  7  1  0
  9  2  1  0
 10  3  1  0
 11  3  1  0
 12  4  1  0
 13  6  1  0
 14  7  1  0
 15  7  1  0
 16  8  1  0
M  END
