
     RDKit          3D

 16 14  0  0  0  0  0  0  0  0999 V2000
    0.2514    2.5565   -0.4525 O   0  0  0  0  0  0  0  0  0  1  0  0
    0.6727    1.6081    0.4486 C   0  0  0  0  0  0  0  0  0  2  0  0
    1.7540    0.8323    0.3250 C   0  0  0  0  0  0  0  0  0  3  0  0
    2.1698   -0.1242    1.1969 O   0  0  0  0  0  0  0  0  0  4  0  0
   -1.0161   -0.7566    0.5400 C   0  0  0  0  0  0  0  0  0  5  0  0
   -0.3486   -1.1661    1.4742 O   0  0  0  0  0  0  0  0  0  6  0  0
   -0.9073   -1.2636   -0.8686 C   0  0  0  0  0  0  0  0  0  7  0  0
   -2.1875   -1.4703   -1.4523 O   0  0  0  0  0  0  0  0  0  8  0  0
    1.3850   -0.4584    1.6692 H   0  0  0  0  0  0  0  0  0  9  0  0
    2.4323    0.9550   -0.5144 H   0  0  0  0  0  0  0  0  0 10  0  0
    0.9147    2.6650   -1.1461 H   0  0  0  0  0  0  0  0  0 11  0  0
    0.0296    1.5956    1.3168 H   0  0  0  0  0  0  0  0  0 12  0  0
   -1.8059    0.0103    0.6698 H   0  0  0  0  0  0  0  0  0 13  0  0
   -0.2619   -2.1432   -0.9016 H   0  0  0  0  0  0  0  0  0 14  0  0
   -0.4350   -0.4639   -1.4517 H   0  0  0  0  0  0  0  0  0 15  0  0
   -2.5850   -2.2409   -1.0325 H   0  0  0  0  0  0  0  0  0 16  0  0
  2  1  1  0
  3  2  2  0
  4  3  1  0
  6  5  2  0
  7  5  1  0
  8  7  1  0
  9  4  1  0
 10  3  1  0
 11  1  1  0
 12  2  1  0
 13  5  1  0
 14  7  1  0
 15  7  1  0
 16  8  1  0
M  END
