
     RDKit          3D

 16 15  0  0  0  0  0  0  0  0999 V2000
   -1.8738   -0.4557   -1.1188 O   0  0  0  0  0  0  0  0  0  1  0  0
   -1.6015   -0.0348    0.1962 C   0  0  0  0  0  0  0  0  0  2  0  0
   -0.3763    0.9033    0.3214 C   0  0  1  0  0  0  0  0  0  3  0  0
   -0.5972    1.8685    1.3137 O   0  0  0  0  0  0  0  0  0  4  0  0
    0.9018    0.1449    0.6153 C   0  0  0  0  0  0  0  0  0  5  0  0
    1.5151    0.3792    1.6437 O   0  0  0  0  0  0  0  0  0  6  0  0
    1.4012   -0.9352   -0.3270 C   0  0  0  0  0  0  0  0  0  7  0  0
    0.8879   -0.8911   -1.6540 O   0  0  0  0  0  0  0  0  0  8  0  0
   -1.5002   -0.8752    0.8922 H   0  0  0  0  0  0  0  0  0  9  0  0
   -0.2759    1.3902   -0.6592 H   0  0  0  0  0  0  0  0  0 10  0  0
   -1.0682   -0.8552   -1.4833 H   0  0  0  0  0  0  0  0  0 11  0  0
   -2.4547    0.5501    0.5274 H   0  0  0  0  0  0  0  0  0 12  0  0
    0.1327    1.7747    1.9505 H   0  0  0  0  0  0  0  0  0 13  0  0
    1.0714   -1.8918    0.0811 H   0  0  0  0  0  0  0  0  0 14  0  0
    2.4916   -0.9376   -0.2966 H   0  0  0  0  0  0  0  0  0 15  0  0
    1.1544   -0.0567   -2.0598 H   0  0  0  0  0  0  0  0  0 16  0  0
  2  1  1  0
  3  2  1  0
  4  3  1  0
  5  3  1  0
  6  5  2  0
  7  5  1  0
  8  7  1  0
  9  2  1  0
  3 10  1  6
 11  1  1  0
 12  2  1  0
 13  4  1  0
 14  7  1  0
 15  7  1  0
 16  8  1  0
M  END
