
     RDKit          3D

 16 16  0  0  0  0  0  0  0  0999 V2000
    0.0443   -1.0617   -1.7423 O   0  0  0  0  0  0  0  0  0  1  0  0
   -0.7364   -0.5726   -0.6949 C   0  0  2  0  0  0  0  0  0  2  0  0
   -0.8353    0.9149   -0.5505 C   0  0  1  0  0  0  0  0  0  3  0  0
   -2.0215    1.5189   -0.0861 O   0  0  0  0  0  0  0  0  0  4  0  0
   -0.0856    0.1088    0.4805 C   0  0  0  0  0  0  0  0  0  5  0  0
   -0.6746   -0.0547    1.7355 O   0  0  0  0  0  0  0  0  0  6  0  0
    1.4158    0.1028    0.5155 C   0  0  0  0  0  0  0  0  0  7  0  0
    1.8411   -1.2705    0.4981 O   0  0  0  0  0  0  0  0  0  8  0  0
   -2.7427    1.2439   -0.6646 H   0  0  0  0  0  0  0  0  0  9  0  0
   -0.2662    1.5128   -1.2580 H   0  0  0  0  0  0  0  0  0 10  0  0
    0.7184   -1.6203   -1.3290 H   0  0  0  0  0  0  0  0  0 11  0  0
   -1.6287   -1.1404   -0.4560 H   0  0  0  0  0  0  0  0  0 12  0  0
   -1.4083    0.5729    1.7776 H   0  0  0  0  0  0  0  0  0 13  0  0
    1.7666    0.6016    1.4229 H   0  0  0  0  0  0  0  0  0 14  0  0
    1.8121    0.6308   -0.3570 H   0  0  0  0  0  0  0  0  0 15  0  0
    2.8045   -1.2905    0.5160 H   0  0  0  0  0  0  0  0  0 16  0  0
  2  1  1  0
  3  2  1  0
  4  3  1  0
  5  3  1  0
  5  2  1  0
  6  5  1  0
  7  5  1  0
  8  7  1  0
  9  4  1  0
  3 10  1  6
 11  1  1  0
  2 12  1  1
 13  6  1  0
 14  7  1  0
 15  7  1  0
 16  8  1  0
M  END
