
     RDKit          3D

 16 15  0  0  0  0  0  0  0  0999 V2000
    0.2570   -0.4901   -2.9819 O   0  0  0  0  0  0  0  0  0  1  0  0
    0.1238    0.0085   -1.7472 C   0  0  0  0  0  0  0  0  0  2  0  0
   -0.7399    0.7890   -0.8785 C   0  0  1  0  0  0  0  0  0  3  0  0
   -1.9590    0.2080   -0.3377 O   0  0  0  0  0  0  0  0  0  4  0  0
    0.5356    0.1456   -0.5239 C   0  0  0  0  0  0  0  0  0  5  0  0
   -1.4859   -0.1775    2.5723 O   0  0  0  0  0  0  0  0  0  6  0  0
    1.4395   -0.1164    0.5990 C   0  0  0  0  0  0  0  0  0  7  0  0
    2.5222   -0.9288    0.1489 O   0  0  0  0  0  0  0  0  0  8  0  0
   -2.7040    0.6512   -0.7607 H   0  0  0  0  0  0  0  0  0  9  0  0
   -0.8560    1.8709   -0.9734 H   0  0  0  0  0  0  0  0  0 10  0  0
    1.0761   -1.0087   -3.0013 H   0  0  0  0  0  0  0  0  0 11  0  0
   -1.7277   -0.0942    1.6360 H   0  0  0  0  0  0  0  0  0 12  0  0
   -2.2059    0.2552    3.0424 H   0  0  0  0  0  0  0  0  0 13  0  0
    0.8651   -0.5831    1.4082 H   0  0  0  0  0  0  0  0  0 14  0  0
    1.7965    0.8449    0.9875 H   0  0  0  0  0  0  0  0  0 15  0  0
    3.0378   -1.1876    0.9202 H   0  0  0  0  0  0  0  0  0 16  0  0
  2  1  1  0
  3  2  1  0
  4  3  1  0
  5  3  1  0
  5  2  2  0
  7  5  1  0
  8  7  1  0
  9  4  1  0
  3 10  1  6
 11  1  1  0
 12  6  1  0
 13  6  1  0
 14  7  1  0
 15  7  1  0
 16  8  1  0
M  END
