
     RDKit          3D

 16 15  0  0  0  0  0  0  0  0999 V2000
   -2.6888    0.2576   -0.4779 O   0  0  0  0  0  0  0  0  0  1  0  0
   -1.4907   -0.2461    0.0737 C   0  0  0  0  0  0  0  0  0  2  0  0
   -0.3390    0.7821    0.0700 C   0  0  1  0  0  0  0  0  0  3  0  0
   -0.6757    1.9529    0.7587 O   0  0  0  0  0  0  0  0  0  4  0  0
    0.8996    0.1545    0.6689 C   0  0  0  0  0  0  0  0  0  5  0  0
    1.3341    0.5673    1.7323 O   0  0  0  0  0  0  0  0  0  6  0  0
    1.5679   -1.0070   -0.0440 C   0  0  0  0  0  0  0  0  0  7  0  0
    1.3011   -1.0856   -1.4351 O   0  0  0  0  0  0  0  0  0  8  0  0
   -1.1633   -1.1554   -0.4400 H   0  0  0  0  0  0  0  0  0  9  0  0
   -0.1415    1.0238   -0.9831 H   0  0  0  0  0  0  0  0  0 10  0  0
   -2.5150    0.5707   -1.3738 H   0  0  0  0  0  0  0  0  0 11  0  0
   -1.7270   -0.5002    1.1064 H   0  0  0  0  0  0  0  0  0 12  0  0
   -0.1028    1.9737    1.5440 H   0  0  0  0  0  0  0  0  0 13  0  0
    1.1661   -1.9255    0.3906 H   0  0  0  0  0  0  0  0  0 14  0  0
    2.6328   -0.9831    0.1962 H   0  0  0  0  0  0  0  0  0 15  0  0
    1.8074   -0.3986   -1.8830 H   0  0  0  0  0  0  0  0  0 16  0  0
  2  1  1  0
  3  2  1  0
  4  3  1  0
  5  3  1  0
  6  5  2  0
  7  5  1  0
  8  7  1  0
  9  2  1  0
  3 10  1  6
 11  1  1  0
 12  2  1  0
 13  4  1  0
 14  7  1  0
 15  7  1  0
 16  8  1  0
M  END
