
     RDKit          3D

 16 13  0  0  0  0  0  0  0  0999 V2000
   -1.9567    1.9365   -1.7333 O   0  0  0  0  0  0  0  0  0  1  0  0
   -1.7779    0.7040   -1.0961 C   0  0  2  0  0  0  0  0  0  2  0  0
   -1.1999    0.5909    0.2823 C   0  0  1  0  0  0  0  0  0  3  0  0
   -1.6925   -0.3693    1.1797 O   0  0  0  0  0  0  0  0  0  4  0  0
   -0.4572    0.0878   -0.8821 C   0  0  0  0  0  0  0  0  0  5  0  0
    1.3018    0.1736    2.6033 O   0  0  0  0  0  0  0  0  0  6  0  0
    0.6144   -0.4428   -1.3669 C   0  0  0  0  0  3  0  0  0  7  0  0
    1.5851   -0.9313   -1.8055 O   0  0  0  0  0  1  0  0  0  8  0  0
   -2.4546    0.0103    1.6315 H   0  0  0  0  0  0  0  0  0  9  0  0
   -0.8168    1.5012    0.7369 H   0  0  0  0  0  0  0  0  0 10  0  0
   -1.1049    2.2330   -2.0752 H   0  0  0  0  0  0  0  0  0 11  0  0
   -2.5903    0.0204   -1.3128 H   0  0  0  0  0  0  0  0  0 12  0  0
    2.0582   -0.1766    2.1231 H   0  0  0  0  0  0  0  0  0 13  0  0
    3.8295   -2.4312   -0.0082 H   0  0  0  0  0 15  0  0  0 14  0  0
    0.5748   -0.3900    2.3225 H   0  0  0  0  0  0  0  0  0 15  0  0
    4.2636   -2.6215   -0.5617 H   0  0  0  0  0 15  0  0  0 16  0  0
  2  1  1  0
  3  2  1  0
  4  3  1  0
  5  3  1  0
  5  2  1  0
  7  5  2  3
  8  7  1  0
  9  4  1  0
  3 10  1  1
 11  1  1  0
  2 12  1  1
 13  6  1  0
 15  6  1  0
M  CHG  4   7  -1   8  -1  14   1  16   1
M  END
