
     RDKit          3D

 16 14  0  0  0  0  0  0  0  0999 V2000
   -2.7458    0.2157    0.4840 O   0  0  0  0  0  0  0  0  0  1  0  0
   -2.4481    0.5044   -0.8102 C   0  0  0  0  0  0  0  0  0  2  0  0
   -1.5841    1.4609   -1.1413 C   0  0  0  0  0  0  0  0  0  3  0  0
   -0.9646    2.1937   -0.1375 O   0  0  0  0  0  0  0  0  0  4  0  0
    1.0033   -0.7800    0.8113 C   0  0  0  0  0  0  0  0  0  5  0  0
    1.2341    0.5640    0.6824 O   0  0  0  0  0  0  0  0  0  6  0  0
    1.8955   -1.7238    0.5263 C   0  0  0  0  0  0  0  0  0  7  0  0
    3.1409   -1.3688    0.0545 O   0  0  0  0  0  0  0  0  0  8  0  0
   -2.9702   -0.1175   -1.5223 H   0  0  0  0  0  0  0  0  0  9  0  0
   -1.3615    1.7330   -2.1672 H   0  0  0  0  0  0  0  0  0 10  0  0
   -2.3007    0.9048    1.0060 H   0  0  0  0  0  0  0  0  0 11  0  0
    0.0176   -1.0135    1.1756 H   0  0  0  0  0  0  0  0  0 12  0  0
   -0.1613    1.7188    0.1472 H   0  0  0  0  0  0  0  0  0 13  0  0
    1.6835   -2.7759    0.6560 H   0  0  0  0  0  0  0  0  0 14  0  0
    3.6513   -2.1674   -0.1010 H   0  0  0  0  0  0  0  0  0 15  0  0
    2.1173    0.6888    0.3069 H   0  0  0  0  0  0  0  0  0 16  0  0
  2  1  1  0
  3  2  2  0
  4  3  1  0
  6  5  1  0
  7  5  2  0
  8  7  1  0
  9  2  1  0
 10  3  1  0
 11  1  1  0
 12  5  1  0
 13  4  1  0
 14  7  1  0
 15  8  1  0
 16  6  1  0
M  END
