
     RDKit          3D

 16 16  0  0  0  0  0  0  0  0999 V2000
   -0.1136    1.9921   -0.8464 O   0  0  0  0  0  0  0  0  0  1  0  0
    0.1850    1.2370    0.2988 C   0  0  2  0  0  0  0  0  0  2  0  0
    1.3485    0.2827    0.2906 C   0  0  1  0  0  0  0  0  0  3  0  0
    2.1659    0.0653    1.3994 O   0  0  0  0  0  0  0  0  0  4  0  0
   -0.0501   -0.2478    0.2512 C   0  0  0  0  0  0  0  0  0  5  0  0
   -0.4459   -0.8406    1.4652 O   0  0  0  0  0  0  0  0  0  6  0  0
   -0.6054   -0.9239   -0.9602 C   0  0  0  0  0  0  0  0  0  7  0  0
   -2.0283   -0.9688   -0.8000 O   0  0  0  0  0  0  0  0  0  8  0  0
    1.6423   -0.4468    2.0309 H   0  0  0  0  0  0  0  0  0  9  0  0
    1.8991    0.2608   -0.6431 H   0  0  0  0  0  0  0  0  0 10  0  0
    0.5082    2.7282   -0.8782 H   0  0  0  0  0  0  0  0  0 11  0  0
   -0.0520    1.6947    1.2535 H   0  0  0  0  0  0  0  0  0 12  0  0
   -1.4092   -0.8918    1.4416 H   0  0  0  0  0  0  0  0  0 13  0  0
   -0.1939   -1.9358   -1.0237 H   0  0  0  0  0  0  0  0  0 14  0  0
   -0.3285   -0.3697   -1.8601 H   0  0  0  0  0  0  0  0  0 15  0  0
   -2.3909   -1.5535   -1.4734 H   0  0  0  0  0  0  0  0  0 16  0  0
  2  1  1  0
  3  2  1  0
  4  3  1  0
  5  3  1  0
  5  2  1  0
  6  5  1  0
  7  5  1  0
  8  7  1  0
  9  4  1  0
  3 10  1  6
 11  1  1  0
  2 12  1  1
 13  6  1  0
 14  7  1  0
 15  7  1  0
 16  8  1  0
M  END
