
     RDKit          3D

 16 15  0  0  0  0  0  0  0  0999 V2000
   -2.6267    0.1740   -0.6557 O   0  0  0  0  0  0  0  0  0  1  0  0
   -1.4592   -0.3170   -0.0331 C   0  0  0  0  0  0  0  0  0  2  0  0
   -0.3336    0.7317   -0.0368 C   0  0  1  0  0  0  0  0  0  3  0  0
   -0.7520    1.8956    0.6369 O   0  0  0  0  0  0  0  0  0  4  0  0
    0.9129    0.1750    0.6077 C   0  0  0  0  0  0  0  0  0  5  0  0
    1.3139    0.6495    1.6591 O   0  0  0  0  0  0  0  0  0  6  0  0
    1.6246   -0.9914   -0.0485 C   0  0  0  0  0  0  0  0  0  7  0  0
    1.3508   -1.1513   -1.4297 O   0  0  0  0  0  0  0  0  0  8  0  0
   -1.1465   -1.1955   -0.5947 H   0  0  0  0  0  0  0  0  0  9  0  0
   -0.1219    0.9733   -1.0838 H   0  0  0  0  0  0  0  0  0 10  0  0
   -2.8640    0.9980   -0.2109 H   0  0  0  0  0  0  0  0  0 11  0  0
   -1.6597   -0.6148    1.0029 H   0  0  0  0  0  0  0  0  0 12  0  0
   -0.1659    1.9780    1.4106 H   0  0  0  0  0  0  0  0  0 13  0  0
    1.2631   -1.9021    0.4358 H   0  0  0  0  0  0  0  0  0 14  0  0
    2.6898   -0.9145    0.1809 H   0  0  0  0  0  0  0  0  0 15  0  0
    1.8113   -0.4591   -1.9174 H   0  0  0  0  0  0  0  0  0 16  0  0
  2  1  1  0
  3  2  1  0
  4  3  1  0
  5  3  1  0
  6  5  2  0
  7  5  1  0
  8  7  1  0
  9  2  1  0
  3 10  1  6
 11  1  1  0
 12  2  1  0
 13  4  1  0
 14  7  1  0
 15  7  1  0
 16  8  1  0
M  END
