
     RDKit          3D

 16 14  0  0  0  0  0  0  0  0999 V2000
   -2.5777    0.0949    0.5417 O   0  0  0  0  0  0  0  0  0  1  0  0
   -1.7221   -0.1179   -0.4817 C   0  0  0  0  0  0  0  0  0  2  0  0
   -0.8372    0.8116   -0.8612 C   0  0  0  0  0  0  0  0  0  3  0  0
   -0.8331    2.0060   -0.1713 O   0  0  0  0  0  0  0  0  0  4  0  0
    0.7693   -0.3319    1.0397 C   0  0  0  0  0  0  0  0  0  5  0  0
    1.1926    0.7884    1.2984 O   0  0  0  0  0  0  0  0  0  6  0  0
    1.3996   -1.1987   -0.0133 C   0  0  0  0  0  0  0  0  0  7  0  0
    2.0766   -0.4850   -1.0194 O   0  0  0  0  0  0  0  0  0  8  0  0
   -1.8577   -1.0714   -0.9722 H   0  0  0  0  0  0  0  0  0  9  0  0
   -0.1261    0.6942   -1.6662 H   0  0  0  0  0  0  0  0  0 10  0  0
   -2.4001    1.0107    0.8275 H   0  0  0  0  0  0  0  0  0 11  0  0
    0.0050   -0.8259    1.6668 H   0  0  0  0  0  0  0  0  0 12  0  0
   -0.0588    1.9833    0.4261 H   0  0  0  0  0  0  0  0  0 13  0  0
    0.6390   -1.8307   -0.4771 H   0  0  0  0  0  0  0  0  0 14  0  0
    2.0765   -1.8745    0.5378 H   0  0  0  0  0  0  0  0  0 15  0  0
    2.4176    0.3175   -0.5988 H   0  0  0  0  0  0  0  0  0 16  0  0
  2  1  1  0
  3  2  2  0
  4  3  1  0
  6  5  2  0
  7  5  1  0
  8  7  1  0
  9  2  1  0
 10  3  1  0
 11  1  1  0
 12  5  1  0
 13  4  1  0
 14  7  1  0
 15  7  1  0
 16  8  1  0
M  END
