
     RDKit          3D

 16 15  0  0  0  0  0  0  0  0999 V2000
   -1.4637    1.5745   -2.0339 O   0  0  0  0  0  0  0  0  0  1  0  0
   -1.6247    0.4699   -1.1648 C   0  0  2  0  0  0  0  0  0  2  0  0
   -2.0083    0.7727    0.2682 C   0  0  1  0  0  0  0  0  0  3  0  0
   -2.9244   -0.0609    0.9470 O   0  0  0  0  0  0  0  0  0  4  0  0
   -0.7178    0.2297   -0.0624 C   0  0  0  0  0  0  0  0  0  5  0  0
    3.7439   -1.3294    1.2446 O   0  0  0  0  0  0  0  0  0  6  0  0
    0.4675   -0.1871    0.3456 C   0  0  0  0  0  0  0  0  0  7  0  0
    1.4073   -0.6575   -0.5175 O   0  0  0  0  0  0  0  0  0  8  0  0
   -3.8071    0.2485    0.7171 H   0  0  0  0  0  0  0  0  0  9  0  0
   -2.0748    1.8299    0.5274 H   0  0  0  0  0  0  0  0  0 10  0  0
   -0.6335    1.4401   -2.5052 H   0  0  0  0  0  0  0  0  0 11  0  0
   -2.1155   -0.3880   -1.6183 H   0  0  0  0  0  0  0  0  0 12  0  0
    4.2615   -2.1206    1.0582 H   0  0  0  0  0  0  0  0  0 13  0  0
    4.3949   -0.6320    1.3779 H   0  0  0  0  0  0  0  0  0 14  0  0
    0.7100   -0.1614    1.4025 H   0  0  0  0  0  0  0  0  0 15  0  0
    2.2082   -0.9234   -0.0240 H   0  0  0  0  0  0  0  0  0 16  0  0
  2  1  1  0
  3  2  1  0
  4  3  1  0
  5  3  1  0
  5  2  1  0
  7  5  2  0
  8  7  1  0
  9  4  1  0
  3 10  1  6
 11  1  1  0
  2 12  1  6
 13  6  1  0
 14  6  1  0
 15  7  1  0
 16  8  1  0
M  END
