
     RDKit          3D

 16 16  0  0  0  0  0  0  0  0999 V2000
    0.0278   -1.3630   -1.6896 O   0  0  0  0  0  0  0  0  0  1  0  0
   -0.7233   -0.6503   -0.7558 C   0  0  2  0  0  0  0  0  0  2  0  0
   -0.5450    0.8355   -0.5790 C   0  0  1  0  0  0  0  0  0  3  0  0
   -1.6452    1.6874   -0.3293 O   0  0  0  0  0  0  0  0  0  4  0  0
   -0.2024   -0.1011    0.5478 C   0  0  0  0  0  0  0  0  0  5  0  0
   -1.0733   -0.1252    1.6432 O   0  0  0  0  0  0  0  0  0  6  0  0
    1.2128   -0.3464    1.0061 C   0  0  0  0  0  0  0  0  0  7  0  0
    2.1471   -0.5256   -0.0671 O   0  0  0  0  0  0  0  0  0  8  0  0
   -2.2433    1.6329   -1.0847 H   0  0  0  0  0  0  0  0  0  9  0  0
    0.2607    1.3026   -1.1432 H   0  0  0  0  0  0  0  0  0 10  0  0
    0.9467   -1.3819   -1.3691 H   0  0  0  0  0  0  0  0  0 11  0  0
   -1.7456   -0.9998   -0.6993 H   0  0  0  0  0  0  0  0  0 12  0  0
   -1.6585    0.6388    1.5455 H   0  0  0  0  0  0  0  0  0 13  0  0
    1.2299   -1.2725    1.5761 H   0  0  0  0  0  0  0  0  0 14  0  0
    1.5231    0.4634    1.6723 H   0  0  0  0  0  0  0  0  0 15  0  0
    2.3663    0.3399   -0.4300 H   0  0  0  0  0  0  0  0  0 16  0  0
  2  1  1  0
  3  2  1  0
  4  3  1  0
  5  3  1  0
  5  2  1  0
  6  5  1  0
  7  5  1  0
  8  7  1  0
  9  4  1  0
  3 10  1  6
 11  1  1  0
  2 12  1  1
 13  6  1  0
 14  7  1  0
 15  7  1  0
 16  8  1  0
M  END
