
     RDKit          3D

 16 15  0  0  0  0  0  0  0  0999 V2000
    1.4933   -0.7668   -0.8602 C   0  0  0  0  0  0  0  0  0  1  0  0
    0.2597    0.0412   -0.5003 C   0  0  1  0  0  0  0  0  0  2  0  0
    0.4059    1.3844   -0.9419 O   0  0  0  0  0  0  0  0  0  3  0  0
   -0.8786   -0.4713   -1.2479 N   0  0  0  0  0  0  0  0  0  4  0  0
   -1.1120    0.5976    1.4773 C   0  0  0  0  0  0  0  0  0  5  0  0
    0.1356    0.0614    0.9607 N   0  0  0  0  0  0  0  0  0  6  0  0
    2.3631   -0.3973   -0.3186 H   0  0  0  0  0  0  0  0  0  7  0  0
    1.3457   -1.8176   -0.6066 H   0  0  0  0  0  0  0  0  0  8  0  0
    1.6733   -0.6956   -1.9284 H   0  0  0  0  0  0  0  0  0  9  0  0
   -1.1269   -1.3934   -0.9095 H   0  0  0  0  0  0  0  0  0 10  0  0
   -1.6792    0.1356   -1.1142 H   0  0  0  0  0  0  0  0  0 11  0  0
   -1.9905   -0.0356    1.2907 H   0  0  0  0  0  0  0  0  0 12  0  0
   -1.0273    0.7411    2.5535 H   0  0  0  0  0  0  0  0  0 13  0  0
   -1.3029    1.5721    1.0329 H   0  0  0  0  0  0  0  0  0 14  0  0
    0.3030   -0.8688    1.3231 H   0  0  0  0  0  0  0  0  0 15  0  0
    1.0444    1.7938   -0.3432 H   0  0  0  0  0  0  0  0  0 16  0  0
  2  1  1  0
  2  3  1  6
  4  2  1  0
  6  5  1  0
  6  2  1  0
  7  1  1  0
  8  1  1  0
  9  1  1  0
 10  4  1  0
 11  4  1  0
 12  5  1  0
 13  5  1  0
 14  5  1  0
 15  6  1  0
 16  3  1  0
M  END
