
     RDKit          3D

 16 14  0  0  0  0  0  0  0  0999 V2000
   -0.9192    0.0491   -1.6923 C   0  0  0  0  0  0  0  0  0  1  0  0
   -1.6476   -0.9669   -0.8655 C   0  0  0  0  0  0  0  0  0  2  0  0
   -2.8227   -1.3188   -1.4634 O   0  0  0  0  0  0  0  0  0  3  0  0
   -1.3213   -1.4921    0.2405 N   0  0  0  0  0  0  0  0  0  4  0  0
    2.1775    1.1423    1.0715 C   0  0  0  0  0  0  0  0  0  5  0  0
    1.1225    0.2611    1.5625 N   0  0  0  0  0  0  0  0  0  6  0  0
   -1.4952    0.9727   -1.7290 H   0  0  0  0  0  0  0  0  0  7  0  0
    0.0602    0.2526   -1.2708 H   0  0  0  0  0  0  0  0  0  8  0  0
   -0.8128   -0.3093   -2.7145 H   0  0  0  0  0  0  0  0  0  9  0  0
   -0.4339   -1.1307    0.5889 H   0  0  0  0  0  0  0  0  0 10  0  0
   -3.2257   -1.9727   -0.8716 H   0  0  0  0  0  0  0  0  0 11  0  0
    2.6899    1.7286    1.8441 H   0  0  0  0  0  0  0  0  0 12  0  0
    2.9259    0.5524    0.5449 H   0  0  0  0  0  0  0  0  0 13  0  0
    1.7600    1.8398    0.3474 H   0  0  0  0  0  0  0  0  0 14  0  0
    1.4815   -0.3962    2.2427 H   0  0  0  0  0  0  0  0  0 15  0  0
    0.3954    0.7836    2.0336 H   0  0  0  0  0  0  0  0  0 16  0  0
  2  1  1  0
  3  2  1  0
  4  2  2  0
  6  5  1  0
  7  1  1  0
  8  1  1  0
  9  1  1  0
 10  4  1  0
 11  3  1  0
 12  5  1  0
 13  5  1  0
 14  5  1  0
 15  6  1  0
 16  6  1  0
M  END
