
     RDKit          3D

 16 14  0  0  0  0  0  0  0  0999 V2000
    1.4668   -0.9194   -1.2815 C   0  0  0  0  0  0  0  0  0  1  0  0
    0.5528    0.2541   -1.5060 C   0  0  0  0  0  0  0  0  0  2  0  0
    0.8963    1.4144   -1.3218 O   0  0  0  0  0  0  0  0  0  3  0  0
   -0.7017   -0.0657   -1.9439 N   0  0  0  0  0  0  0  0  0  4  0  0
   -1.2595    0.4139    1.9699 C   0  0  0  0  0  0  0  0  0  5  0  0
    0.1666    0.2299    1.7290 N   0  0  0  0  0  0  0  0  0  6  0  0
    2.4958   -0.5779   -1.3146 H   0  0  0  0  0  0  0  0  0  7  0  0
    1.2670   -1.3218   -0.2889 H   0  0  0  0  0  0  0  0  0  8  0  0
    1.3200   -1.7108   -2.0156 H   0  0  0  0  0  0  0  0  0  9  0  0
   -1.0522   -1.0019   -1.8385 H   0  0  0  0  0  0  0  0  0 10  0  0
   -1.3809    0.6752   -1.9304 H   0  0  0  0  0  0  0  0  0 11  0  0
   -1.6590   -0.4571    2.4890 H   0  0  0  0  0  0  0  0  0 12  0  0
   -1.5185    1.3006    2.5632 H   0  0  0  0  0  0  0  0  0 13  0  0
   -1.7920    0.4870    1.0219 H   0  0  0  0  0  0  0  0  0 14  0  0
    0.6758    0.2408    2.6033 H   0  0  0  0  0  0  0  0  0 15  0  0
    0.5236    1.0073    1.1872 H   0  0  0  0  0  0  0  0  0 16  0  0
  2  1  1  0
  3  2  2  0
  4  2  1  0
  6  5  1  0
  7  1  1  0
  8  1  1  0
  9  1  1  0
 10  4  1  0
 11  4  1  0
 12  5  1  0
 13  5  1  0
 14  5  1  0
 15  6  1  0
 16  6  1  0
M  END
