
     RDKit          3D

 16 14  0  0  0  0  0  0  0  0999 V2000
   -0.8083    0.2428   -1.7393 C   0  0  0  0  0  0  0  0  0  1  0  0
   -1.5953   -0.9188   -1.1694 C   0  0  0  0  0  0  0  0  0  2  0  0
   -2.4641   -1.4991   -1.8089 O   0  0  0  0  0  0  0  0  0  3  0  0
   -1.2608   -1.2661    0.0968 N   0  0  0  0  0  0  0  0  0  4  0  0
    1.7909    0.8362    0.8631 C   0  0  0  0  0  0  0  0  0  5  0  0
    0.8207    0.2490    1.7841 N   0  0  0  0  0  0  0  0  0  6  0  0
   -0.9932    1.1478   -1.1597 H   0  0  0  0  0  0  0  0  0  7  0  0
    0.2629    0.0445   -1.7057 H   0  0  0  0  0  0  0  0  0  8  0  0
   -1.1111    0.4081   -2.7668 H   0  0  0  0  0  0  0  0  0  9  0  0
   -0.5793   -0.7556    0.6557 H   0  0  0  0  0  0  0  0  0 10  0  0
   -1.7806   -2.0114    0.5229 H   0  0  0  0  0  0  0  0  0 11  0  0
    2.6067    1.3920    1.3386 H   0  0  0  0  0  0  0  0  0 12  0  0
    2.2268    0.0461    0.2543 H   0  0  0  0  0  0  0  0  0 13  0  0
    1.2723    1.5085    0.1824 H   0  0  0  0  0  0  0  0  0 14  0  0
    1.2806   -0.3848    2.4239 H   0  0  0  0  0  0  0  0  0 15  0  0
    0.3972    0.9653    2.3590 H   0  0  0  0  0  0  0  0  0 16  0  0
  2  1  1  0
  3  2  2  0
  4  2  1  0
  6  5  1  0
  7  1  1  0
  8  1  1  0
  9  1  1  0
 10  4  1  0
 11  4  1  0
 12  5  1  0
 13  5  1  0
 14  5  1  0
 15  6  1  0
 16  6  1  0
M  END
