
     RDKit          3D

 12 10  0  0  0  0  0  0  0  0999 V2000
    0.4656   -1.1792   -0.3040 C   0  0  0  0  0  0  0  0  0  1  0  0
    1.5691   -0.8700    0.1178 O   0  0  0  0  0  0  0  0  0  2  0  0
    0.8605    1.2841    1.5711 O   0  0  0  0  0  0  0  0  0  3  0  0
   -0.0518   -0.8571   -1.6632 C   0  0  0  0  0  0  0  0  0  4  0  0
   -0.3889    1.1151    1.2359 C   0  0  0  0  0  3  0  0  0  5  0  0
   -1.0809    2.0831    1.8561 O   0  0  0  0  0  3  0  0  0  6  0  0
    0.6244   -0.2017   -2.2030 H   0  0  0  0  0  0  0  0  0  7  0  0
   -2.0214    1.9862    1.6324 H   0  0  0  0  0  0  0  0  0  8  0  0
   -0.2238   -1.8007    0.3004 H   0  0  0  0  0  0  0  0  0  9  0  0
   -0.1904   -1.7851   -2.2218 H   0  0  0  0  0  0  0  0  0 10  0  0
    1.3922    0.5666    1.1396 H   0  0  0  0  0  0  0  0  0 11  0  0
   -1.0358   -0.3949   -1.5783 H   0  0  0  0  0  0  0  0  0 12  0  0
  2  1  2  0
  4  1  1  0
  5  3  1  0
  6  5  2  0
  7  4  1  0
  8  6  1  0
  9  1  1  0
 10  4  1  0
 11  3  1  0
 12  4  1  0
M  CHG  2   5  -1   6   1
M  END
