
     RDKit          3D

 12 11  0  0  0  0  0  0  0  0999 V2000
    0.1217   -1.3005   -0.5510 C   0  0  0  0  0  0  0  0  0  1  0  0
    0.8265   -2.4111   -0.8850 O   0  0  0  0  0  0  0  0  0  2  0  0
   -0.0102    1.4960    1.4480 O   0  0  0  0  0  0  0  0  0  3  0  0
    0.6156   -0.1007   -0.2527 C   0  0  0  0  0  0  0  0  0  4  0  0
   -0.2433    1.0617    0.1112 C   0  0  0  0  0  0  0  0  0  5  0  0
   -1.6010    0.7224   -0.0919 O   0  0  0  0  0  0  0  0  0  6  0  0
   -2.1134    1.4411    0.3004 H   0  0  0  0  0  0  0  0  0  7  0  0
   -0.9398   -1.4953   -0.5604 H   0  0  0  0  0  0  0  0  0  8  0  0
   -0.0492    0.7040    2.0021 H   0  0  0  0  0  0  0  0  0  9  0  0
    1.6867    0.0747   -0.2557 H   0  0  0  0  0  0  0  0  0 10  0  0
    0.0173    1.9401   -0.4893 H   0  0  0  0  0  0  0  0  0 11  0  0
    1.7678   -2.1959   -0.8830 H   0  0  0  0  0  0  0  0  0 12  0  0
  2  1  1  0
  4  1  2  0
  5  4  1  0
  5  3  1  0
  6  5  1  0
  7  6  1  0
  8  1  1  0
  9  3  1  0
 10  4  1  0
 11  5  1  0
 12  2  1  0
M  END
