
     RDKit          3D

 12 10  0  0  0  0  0  0  0  0999 V2000
    0.0418   -0.3143   -0.6261 C   0  0  0  0  0  0  0  0  0  1  0  0
   -1.1733    0.2301   -0.5855 O   0  0  0  0  0  0  0  0  0  2  0  0
   -1.0613    1.3113    1.9335 O   0  0  0  0  0  0  0  0  0  3  0  0
    0.3186   -0.9840   -1.9348 C   0  0  0  0  0  0  0  0  0  4  0  0
    0.0502    1.0078    2.3313 C   0  0  0  0  0  0  0  0  0  5  0  0
    0.8334   -0.2694    0.3027 O   0  0  0  0  0  0  0  0  0  6  0  0
    1.3299   -1.3724   -1.9522 H   0  0  0  0  0  0  0  0  0  7  0  0
    0.9196    1.6672    2.1807 H   0  0  0  0  0  0  0  0  0  8  0  0
   -1.2654    0.6534    0.3003 H   0  0  0  0  0  0  0  0  0  9  0  0
   -0.3910   -1.7952   -2.0854 H   0  0  0  0  0  0  0  0  0 10  0  0
    0.2264    0.0888    2.9122 H   0  0  0  0  0  0  0  0  0 11  0  0
    0.1753   -0.2741   -2.7463 H   0  0  0  0  0  0  0  0  0 12  0  0
  2  1  1  0
  4  1  1  0
  5  3  2  0
  6  1  2  0
  7  4  1  0
  8  5  1  0
  9  2  1  0
 10  4  1  0
 11  5  1  0
 12  4  1  0
M  END
