
     RDKit          3D

 12 10  0  0  0  0  0  0  0  0999 V2000
    0.1877   -0.3839   -1.7895 C   0  0  0  0  0  0  0  0  0  1  0  0
    0.5042   -1.4185   -0.9824 O   0  0  0  0  0  0  0  0  0  2  0  0
    0.8056   -0.4137    1.6832 O   0  0  0  0  0  0  0  0  0  3  0  0
    0.2848    0.9237   -1.5346 C   0  0  0  0  0  0  0  0  0  4  0  0
   -0.2063   -0.1683    2.3051 C   0  0  0  0  0  0  0  0  0  5  0  0
   -1.3692    0.2048    1.7788 O   0  0  0  0  0  0  0  0  0  6  0  0
   -1.2617    0.2531    0.8110 H   0  0  0  0  0  0  0  0  0  7  0  0
   -0.1883   -0.7396   -2.7452 H   0  0  0  0  0  0  0  0  0  8  0  0
    0.7776   -1.0816   -0.1069 H   0  0  0  0  0  0  0  0  0  9  0  0
    0.7232    1.3174   -0.6272 H   0  0  0  0  0  0  0  0  0 10  0  0
   -0.2916   -0.2192    3.3966 H   0  0  0  0  0  0  0  0  0 11  0  0
   -0.0014    1.6418   -2.2900 H   0  0  0  0  0  0  0  0  0 12  0  0
  2  1  1  0
  4  1  2  0
  5  3  2  0
  6  5  1  0
  7  6  1  0
  8  1  1  0
  9  2  1  0
 10  4  1  0
 11  5  1  0
 12  4  1  0
M  END
