
     RDKit          3D

 12 11  0  0  0  0  0  0  0  0999 V2000
   -0.1635   -0.1047   -0.9468 C   0  0  0  0  0  0  0  0  0  1  0  0
   -1.5413    0.1796   -1.2097 O   0  0  0  0  0  0  0  0  0  2  0  0
   -0.5399    1.0293    1.1645 O   0  0  0  0  0  0  0  0  0  3  0  0
   -0.0482   -0.1559    0.5641 C   0  0  2  0  0  0  0  0  0  4  0  0
    1.3803   -0.3653    1.0230 C   0  0  0  0  0  0  0  0  0  5  0  0
    2.1958   -1.0115    0.4088 O   0  0  0  0  0  0  0  0  0  6  0  0
    0.4805    0.6903   -1.3312 H   0  0  0  0  0  0  0  0  0  7  0  0
    0.1520   -1.0541   -1.3820 H   0  0  0  0  0  0  0  0  0  8  0  0
   -1.3532    1.2397    0.6844 H   0  0  0  0  0  0  0  0  0  9  0  0
   -0.6195   -1.0295    0.9196 H   0  0  0  0  0  0  0  0  0 10  0  0
    1.6199    0.1103    1.9961 H   0  0  0  0  0  0  0  0  0 11  0  0
   -1.6335    0.4336   -2.1328 H   0  0  0  0  0  0  0  0  0 12  0  0
  2  1  1  0
  4  3  1  0
  4  1  1  0
  5  4  1  0
  6  5  2  0
  7  1  1  0
  8  1  1  0
  9  3  1  0
  4 10  1  1
 11  5  1  0
 12  2  1  0
M  END
