
     RDKit          3D

 12 11  0  0  0  0  0  0  0  0999 V2000
    0.1199   -1.3038   -0.5118 C   0  0  0  0  0  0  0  0  0  1  0  0
    0.8201   -2.4326   -0.7901 O   0  0  0  0  0  0  0  0  0  2  0  0
   -0.0468    1.5404    1.4147 O   0  0  0  0  0  0  0  0  0  3  0  0
    0.6212   -0.1050   -0.2217 C   0  0  0  0  0  0  0  0  0  4  0  0
   -0.2323    1.0790    0.0795 C   0  0  0  0  0  0  0  0  0  5  0  0
   -1.5859    0.7560   -0.1725 O   0  0  0  0  0  0  0  0  0  6  0  0
   -2.1026    1.4923    0.1794 H   0  0  0  0  0  0  0  0  0  7  0  0
   -0.9434   -1.4826   -0.5606 H   0  0  0  0  0  0  0  0  0  8  0  0
   -0.1201    0.7618    1.9841 H   0  0  0  0  0  0  0  0  0  9  0  0
    1.6944    0.0528   -0.1844 H   0  0  0  0  0  0  0  0  0 10  0  0
    0.0670    1.9390   -0.5297 H   0  0  0  0  0  0  0  0  0 11  0  0
    1.7638   -2.2301   -0.7585 H   0  0  0  0  0  0  0  0  0 12  0  0
  2  1  1  0
  4  1  2  0
  5  4  1  0
  5  3  1  0
  6  5  1  0
  7  6  1  0
  8  1  1  0
  9  3  1  0
 10  4  1  0
 11  5  1  0
 12  2  1  0
M  END
