
     RDKit          3D

 12 11  0  0  0  0  0  0  0  0999 V2000
    0.2207    0.4158   -0.1397 C   0  0  1  0  0  0  0  0  0  1  0  0
    1.5592   -0.0143    0.1549 O   0  0  0  0  0  0  0  0  0  2  0  0
    0.0070    0.0966    2.2495 O   0  0  0  0  0  0  0  0  0  3  0  0
   -0.3923   -0.3258   -1.3060 C   0  0  0  0  0  0  0  0  0  4  0  0
   -0.6645    0.3306    1.1082 C   0  0  0  0  0  0  0  0  0  5  0  0
   -1.8594    0.4791    1.0787 O   0  0  0  0  0  0  0  0  0  6  0  0
    0.2253   -0.2018   -2.1929 H   0  0  0  0  0  0  0  0  0  7  0  0
    0.3132    1.4759   -0.3815 H   0  0  0  0  0  0  0  0  0  8  0  0
    0.9487    0.0127    2.0044 H   0  0  0  0  0  0  0  0  0  9  0  0
   -0.4804   -1.3922   -1.0934 H   0  0  0  0  0  0  0  0  0 10  0  0
    1.6179   -0.9528   -0.0634 H   0  0  0  0  0  0  0  0  0 11  0  0
   -1.3881    0.0577   -1.5073 H   0  0  0  0  0  0  0  0  0 12  0  0
  2  1  1  0
  4  1  1  0
  5  3  1  0
  5  1  1  0
  6  5  2  0
  7  4  1  0
  1  8  1  6
  9  3  1  0
 10  4  1  0
 11  2  1  0
 12  4  1  0
M  END
