
     RDKit          3D

 12 11  0  0  0  0  0  0  0  0999 V2000
   -0.4398    0.3811   -0.9471 C   0  0  0  0  0  0  0  0  0  1  0  0
   -1.0280   -0.7512   -1.5519 O   0  0  0  0  0  0  0  0  0  2  0  0
    0.3054    1.3728    1.1717 O   0  0  0  0  0  0  0  0  0  3  0  0
   -0.1221    0.1750    0.5302 C   0  0  2  0  0  0  0  0  0  4  0  0
    0.9781   -0.8423    0.7574 C   0  0  0  0  0  0  0  0  0  5  0  0
    1.2821   -1.7044   -0.0364 O   0  0  0  0  0  0  0  0  0  6  0  0
   -1.1611    1.1967   -1.0264 H   0  0  0  0  0  0  0  0  0  7  0  0
    0.4704    0.7024   -1.4630 H   0  0  0  0  0  0  0  0  0  8  0  0
   -0.4505    1.9676    1.2255 H   0  0  0  0  0  0  0  0  0  9  0  0
   -1.0161   -0.2348    1.0224 H   0  0  0  0  0  0  0  0  0 10  0  0
    1.4927   -0.7421    1.7339 H   0  0  0  0  0  0  0  0  0 11  0  0
   -0.3634   -1.4544   -1.5468 H   0  0  0  0  0  0  0  0  0 12  0  0
  2  1  1  0
  4  3  1  0
  4  1  1  0
  5  4  1  0
  6  5  2  0
  7  1  1  0
  8  1  1  0
  9  3  1  0
  4 10  1  1
 11  5  1  0
 12  2  1  0
M  END
