
     RDKit          3D

 12 11  0  0  0  0  0  0  0  0999 V2000
    0.0006   -1.5476    0.1410 C   0  0  0  0  0  0  0  0  0  1  0  0
   -0.4641   -1.5274    1.2616 O   0  0  0  0  0  0  0  0  0  2  0  0
    0.1593    1.2049    1.2601 O   0  0  0  0  0  0  0  0  0  3  0  0
    0.6102   -0.3677   -0.5536 C   0  0  0  0  0  0  0  0  0  4  0  0
    0.0541    0.9798   -0.1151 C   0  0  0  0  0  0  0  0  0  5  0  0
   -1.2870    1.0181   -0.5744 O   0  0  0  0  0  0  0  0  0  6  0  0
   -1.6988    1.7873   -0.1582 H   0  0  0  0  0  0  0  0  0  7  0  0
    0.0120   -2.4977   -0.4294 H   0  0  0  0  0  0  0  0  0  8  0  0
   -0.1696    0.3956    1.6922 H   0  0  0  0  0  0  0  0  0  9  0  0
    1.6856   -0.3964   -0.3551 H   0  0  0  0  0  0  0  0  0 10  0  0
    0.6276    1.7832   -0.5881 H   0  0  0  0  0  0  0  0  0 11  0  0
    0.4891   -0.4857   -1.6308 H   0  0  0  0  0  0  0  0  0 12  0  0
  2  1  2  0
  4  1  1  0
  5  4  1  0
  5  3  1  0
  6  5  1  0
  7  6  1  0
  8  1  1  0
  9  3  1  0
 10  4  1  0
 11  5  1  0
 12  4  1  0
M  END
