
     RDKit          3D

 12 11  0  0  0  0  0  0  0  0999 V2000
    0.3379   -1.1962   -0.5361 C   0  0  0  0  0  0  0  0  0  1  0  0
    1.2252   -2.2126   -0.7446 O   0  0  0  0  0  0  0  0  0  2  0  0
   -0.2247    1.5031    1.4990 O   0  0  0  0  0  0  0  0  0  3  0  0
    0.7268    0.0099   -0.1352 C   0  0  0  0  0  0  0  0  0  4  0  0
   -0.2270    1.1207    0.1267 C   0  0  0  0  0  0  0  0  0  5  0  0
   -1.5228    0.7447   -0.2994 O   0  0  0  0  0  0  0  0  0  6  0  0
   -2.1195    1.4171    0.0542 H   0  0  0  0  0  0  0  0  0  7  0  0
   -0.7092   -1.4142   -0.7194 H   0  0  0  0  0  0  0  0  0  8  0  0
   -0.2698    0.6824    2.0085 H   0  0  0  0  0  0  0  0  0  9  0  0
    1.7771    0.2220    0.0219 H   0  0  0  0  0  0  0  0  0 10  0  0
    0.0897    2.0306   -0.3941 H   0  0  0  0  0  0  0  0  0 11  0  0
    0.7515   -2.9955   -1.0455 H   0  0  0  0  0  0  0  0  0 12  0  0
  2  1  1  0
  4  1  2  0
  5  4  1  0
  5  3  1  0
  6  5  1  0
  7  6  1  0
  8  1  1  0
  9  3  1  0
 10  4  1  0
 11  5  1  0
 12  2  1  0
M  END
