
     RDKit          3D

 12 10  0  0  0  0  0  0  0  0999 V2000
    0.4858   -0.9459   -0.4697 C   0  0  0  0  0  0  0  0  0  1  0  0
    0.9197   -2.1468   -0.8800 O   0  0  0  0  0  0  0  0  0  2  0  0
   -1.6301   -0.0375    1.9923 O   0  0  0  0  0  0  0  0  0  3  0  0
    0.8820    0.1798   -1.0937 C   0  0  0  0  0  0  0  0  0  4  0  0
    0.4351    1.4843   -0.6784 C   0  0  0  0  0  0  0  0  0  5  0  0
   -0.3273    1.7438    0.2516 O   0  0  0  0  0  0  0  0  0  6  0  0
   -1.2736    0.7224    1.4880 H   0  0  0  0  0  0  0  0  0  7  0  0
   -0.1923   -0.9322    0.3801 H   0  0  0  0  0  0  0  0  0  8  0  0
   -2.1846    0.3568    2.6721 H   0  0  0  0  0  0  0  0  0  9  0  0
    1.5583    0.1107   -1.9357 H   0  0  0  0  0  0  0  0  0 10  0  0
    0.8379    2.3199   -1.2795 H   0  0  0  0  0  0  0  0  0 11  0  0
    0.5438   -2.8447   -0.3292 H   0  0  0  0  0  0  0  0  0 12  0  0
  2  1  1  0
  4  1  2  0
  5  4  1  0
  6  5  2  0
  7  3  1  0
  8  1  1  0
  9  3  1  0
 10  4  1  0
 11  5  1  0
 12  2  1  0
M  END
