
     RDKit          3D

 12 11  0  0  0  0  0  0  0  0999 V2000
    0.1217    0.4340   -0.0074 C   0  0  1  0  0  0  0  0  0  1  0  0
    1.3256    0.2225    0.7426 O   0  0  0  0  0  0  0  0  0  2  0  0
   -0.7487   -0.5533    2.0455 O   0  0  0  0  0  0  0  0  0  3  0  0
    0.1293   -0.2720   -1.3475 C   0  0  0  0  0  0  0  0  0  4  0  0
   -1.0566   -0.0436    0.8413 C   0  0  0  0  0  0  0  0  0  5  0  0
   -2.1940    0.0370    0.4516 O   0  0  0  0  0  0  0  0  0  6  0  0
    0.9101    0.1381   -1.9876 H   0  0  0  0  0  0  0  0  0  7  0  0
   -0.0395    1.5054   -0.1628 H   0  0  0  0  0  0  0  0  0  8  0  0
    0.2167   -0.5062    2.1526 H   0  0  0  0  0  0  0  0  0  9  0  0
    0.3085   -1.3386   -1.2249 H   0  0  0  0  0  0  0  0  0 10  0  0
    2.0797    0.4525    0.1905 H   0  0  0  0  0  0  0  0  0 11  0  0
   -0.8282   -0.1332   -1.8406 H   0  0  0  0  0  0  0  0  0 12  0  0
  2  1  1  0
  4  1  1  0
  5  3  1  0
  5  1  1  0
  6  5  2  0
  7  4  1  0
  1  8  1  6
  9  3  1  0
 10  4  1  0
 11  2  1  0
 12  4  1  0
M  END
