
     RDKit          3D

 12 11  0  0  0  0  0  0  0  0999 V2000
    0.0492   -1.5658    0.0246 C   0  0  0  0  0  0  0  0  0  1  0  0
   -0.4086   -1.6423    1.1457 O   0  0  0  0  0  0  0  0  0  2  0  0
    0.1350    1.0998    1.3440 O   0  0  0  0  0  0  0  0  0  3  0  0
    0.6186   -0.3199   -0.5835 C   0  0  0  0  0  0  0  0  0  4  0  0
    0.0262    0.9743   -0.0435 C   0  0  0  0  0  0  0  0  0  5  0  0
   -1.3189    1.0062   -0.4914 O   0  0  0  0  0  0  0  0  0  6  0  0
   -1.7499    1.7298   -0.0170 H   0  0  0  0  0  0  0  0  0  7  0  0
    0.0863   -2.4704   -0.6141 H   0  0  0  0  0  0  0  0  0  8  0  0
   -0.1672    0.2515    1.7166 H   0  0  0  0  0  0  0  0  0  9  0  0
    1.6958   -0.3312   -0.3926 H   0  0  0  0  0  0  0  0  0 10  0  0
    0.5720    1.8274   -0.4586 H   0  0  0  0  0  0  0  0  0 11  0  0
    0.4936   -0.3616   -1.6660 H   0  0  0  0  0  0  0  0  0 12  0  0
  2  1  2  0
  4  1  1  0
  5  4  1  0
  5  3  1  0
  6  5  1  0
  7  6  1  0
  8  1  1  0
  9  3  1  0
 10  4  1  0
 11  5  1  0
 12  4  1  0
M  END
