
     RDKit          3D

 12 11  0  0  0  0  0  0  0  0999 V2000
    0.0355    0.0404   -0.6563 C   0  0  0  0  0  0  0  0  0  1  0  0
   -0.5006    1.1107   -0.8622 O   0  0  0  0  0  0  0  0  0  2  0  0
   -1.2660    0.6479    1.9088 O   0  0  0  0  0  0  0  0  0  3  0  0
    0.3881   -0.9652   -1.7059 C   0  0  0  0  0  0  0  0  0  4  0  0
    0.0891    0.5209    1.6565 C   0  0  0  0  0  0  0  0  0  5  0  0
    0.3806   -0.3969    0.5769 O   0  0  0  0  0  0  0  0  0  6  0  0
    1.4245   -1.2786   -1.6076 H   0  0  0  0  0  0  0  0  0  7  0  0
    0.5623    1.4743    1.4195 H   0  0  0  0  0  0  0  0  0  8  0  0
   -1.6408    1.1640    1.1795 H   0  0  0  0  0  0  0  0  0  9  0  0
   -0.2330   -1.8512   -1.5848 H   0  0  0  0  0  0  0  0  0 10  0  0
    0.5480    0.0596    2.5245 H   0  0  0  0  0  0  0  0  0 11  0  0
    0.2144   -0.5372   -2.6859 H   0  0  0  0  0  0  0  0  0 12  0  0
  2  1  2  0
  4  1  1  0
  5  3  1  0
  6  5  1  0
  6  1  1  0
  7  4  1  0
  8  5  1  0
  9  3  1  0
 10  4  1  0
 11  5  1  0
 12  4  1  0
M  END
