
     RDKit          3D

 12 11  0  0  0  0  0  0  0  0999 V2000
   -0.1022   -0.0265   -1.0459 C   0  0  0  0  0  0  0  0  0  1  0  0
    0.3649   -0.8984   -0.0977 O   0  0  0  0  0  0  0  0  0  2  0  0
    0.5064    0.2902    1.8761 O   0  0  0  0  0  0  0  0  0  3  0  0
    0.7260    0.6353   -1.8405 C   0  0  0  0  0  0  0  0  0  4  0  0
   -0.1590   -0.7522    1.2205 C   0  0  0  0  0  0  0  0  0  5  0  0
   -1.5364   -0.5605    1.2530 O   0  0  0  0  0  0  0  0  0  6  0  0
   -1.6904    0.3924    1.3168 H   0  0  0  0  0  0  0  0  0  7  0  0
   -1.1804    0.0447   -1.1297 H   0  0  0  0  0  0  0  0  0  8  0  0
    0.9187    0.8375    1.1931 H   0  0  0  0  0  0  0  0  0  9  0  0
    1.7985    0.5163   -1.7682 H   0  0  0  0  0  0  0  0  0 10  0  0
    0.0577   -1.6922    1.7192 H   0  0  0  0  0  0  0  0  0 11  0  0
    0.3315    1.2975   -2.5958 H   0  0  0  0  0  0  0  0  0 12  0  0
  2  1  1  0
  4  1  2  0
  5  3  1  0
  5  2  1  0
  6  5  1  0
  7  6  1  0
  8  1  1  0
  9  3  1  0
 10  4  1  0
 11  5  1  0
 12  4  1  0
M  END
