
     RDKit          3D

 12 10  0  0  0  0  0  0  0  0999 V2000
    0.2621   -0.0619   -1.7189 C   0  0  0  0  0  0  0  0  0  1  0  0
   -0.4284    1.0687   -1.5198 O   0  0  0  0  0  0  0  0  0  2  0  0
   -1.1854    1.0854    1.2209 O   0  0  0  0  0  0  0  0  0  3  0  0
    0.2647   -1.1870   -0.9822 C   0  0  0  0  0  0  0  0  0  4  0  0
   -0.3527    0.7595    2.0453 C   0  0  0  0  0  0  0  0  0  5  0  0
    0.6850   -0.0362    1.8467 O   0  0  0  0  0  0  0  0  0  6  0  0
    0.7062   -0.3220    0.9007 H   0  0  0  0  0  0  0  0  0  7  0  0
    0.8922    0.0226   -2.6007 H   0  0  0  0  0  0  0  0  0  8  0  0
   -0.8426    1.0665   -0.6309 H   0  0  0  0  0  0  0  0  0  9  0  0
   -0.4737   -1.4067   -0.2226 H   0  0  0  0  0  0  0  0  0 10  0  0
   -0.3717    1.0959    3.0877 H   0  0  0  0  0  0  0  0  0 11  0  0
    0.8831   -2.0163   -1.2932 H   0  0  0  0  0  0  0  0  0 12  0  0
  2  1  1  0
  4  1  2  0
  5  3  2  0
  6  5  1  0
  7  6  1  0
  8  1  1  0
  9  2  1  0
 10  4  1  0
 11  5  1  0
 12  4  1  0
M  END
