
     RDKit          3D

 12 11  0  0  0  0  0  0  0  0999 V2000
    0.2490   -0.2222   -0.0097 C   0  0  0  0  0  0  0  0  0  1  0  0
    1.4003   -0.9880    0.2839 O   0  0  0  0  0  0  0  0  0  2  0  0
    0.3177    0.5375    2.2269 O   0  0  0  0  0  0  0  0  0  3  0  0
   -0.3258   -0.3809   -1.3660 C   0  0  0  0  0  0  0  0  0  4  0  0
   -0.2451    0.5030    0.9992 C   0  0  0  0  0  0  0  0  0  5  0  0
   -1.3450    1.3007    0.9842 O   0  0  0  0  0  0  0  0  0  6  0  0
    0.3475   -0.0031   -2.1429 H   0  0  0  0  0  0  0  0  0  7  0  0
   -1.7493    1.2872    0.1106 H   0  0  0  0  0  0  0  0  0  8  0  0
    1.0614   -0.0854    2.2008 H   0  0  0  0  0  0  0  0  0  9  0  0
   -0.5175   -1.4335   -1.5875 H   0  0  0  0  0  0  0  0  0 10  0  0
    2.1526   -0.5867   -0.1701 H   0  0  0  0  0  0  0  0  0 11  0  0
   -1.2742    0.1469   -1.4821 H   0  0  0  0  0  0  0  0  0 12  0  0
  2  1  1  0
  4  1  1  0
  5  3  1  0
  5  1  2  0
  6  5  1  0
  7  4  1  0
  8  6  1  0
  9  3  1  0
 10  4  1  0
 11  2  1  0
 12  4  1  0
M  END
