
     RDKit          3D

 12 10  0  0  0  0  0  0  0  0999 V2000
    0.4275    0.0683   -0.4397 C   0  0  0  0  0  0  0  0  0  1  0  0
   -0.0393   -1.2689   -0.4022 O   0  0  0  0  0  0  0  0  0  2  0  0
    0.1068    0.7576    0.7532 O   0  0  0  0  0  0  0  0  0  3  0  0
   -0.1732    0.7211   -1.6582 C   0  0  0  0  0  0  0  0  0  4  0  0
   -0.6531   -1.2444    3.1406 C   0  0  0  0  0  3  0  0  0  5  0  0
    0.2617   -0.8481    3.6773 O   0  0  0  0  0  3  0  0  0  6  0  0
    0.1342    0.2053   -2.5658 H   0  0  0  0  0  0  0  0  0  7  0  0
    1.5221    0.0879   -0.4727 H   0  0  0  0  0  0  0  0  0  8  0  0
   -0.8583    0.7690    0.8183 H   0  0  0  0  0  0  0  0  0  9  0  0
   -1.2607    0.6786   -1.5989 H   0  0  0  0  0  0  0  0  0 10  0  0
    0.4166   -1.7069    0.3267 H   0  0  0  0  0  0  0  0  0 11  0  0
    0.1385    1.7614   -1.7217 H   0  0  0  0  0  0  0  0  0 12  0  0
  2  1  1  0
  3  1  1  0
  4  1  1  0
  6  5  3  0
  7  4  1  0
  8  1  1  0
  9  3  1  0
 10  4  1  0
 11  2  1  0
 12  4  1  0
M  CHG  2   5  -1   6   1
M  END
