
     RDKit          3D

 12 10  0  0  0  0  0  0  0  0999 V2000
   -0.6689   -0.6377   -0.6996 C   0  0  0  0  0  0  0  0  0  1  0  0
   -1.4628   -1.1986   -1.6236 O   0  0  0  0  0  0  0  0  0  2  0  0
    0.1153    2.5811   -0.0713 O   0  0  0  0  0  0  0  0  0  3  0  0
    0.0900   -1.3989    0.1115 C   0  0  0  0  0  0  0  0  0  4  0  0
    0.9519   -0.8259    1.1129 C   0  0  0  0  0  0  0  0  0  5  0  0
    1.1099    0.3697    1.3554 O   0  0  0  0  0  0  0  0  0  6  0  0
    0.5621    1.9462    0.5252 H   0  0  0  0  0  0  0  0  0  7  0  0
   -0.6721    0.4478   -0.6427 H   0  0  0  0  0  0  0  0  0  8  0  0
    0.2988    3.4453    0.3090 H   0  0  0  0  0  0  0  0  0  9  0  0
    0.0562   -2.4762    0.0152 H   0  0  0  0  0  0  0  0  0 10  0  0
    1.5167   -1.5652    1.7099 H   0  0  0  0  0  0  0  0  0 11  0  0
   -1.9312   -0.5167   -2.1209 H   0  0  0  0  0  0  0  0  0 12  0  0
  2  1  1  0
  4  1  2  0
  5  4  1  0
  6  5  2  0
  7  3  1  0
  8  1  1  0
  9  3  1  0
 10  4  1  0
 11  5  1  0
 12  2  1  0
M  END
