
     RDKit          3D

 12 11  0  0  0  0  0  0  0  0999 V2000
    0.2846   -0.3605   -0.2586 C   0  0  0  0  0  0  0  0  0  1  0  0
    1.4852   -1.0308   -0.2926 O   0  0  0  0  0  0  0  0  0  2  0  0
    0.9236    0.6996    1.7512 O   0  0  0  0  0  0  0  0  0  3  0  0
   -0.6180   -0.7089   -1.3818 C   0  0  0  0  0  0  0  0  0  4  0  0
    0.0160    0.5076    0.7187 C   0  0  0  0  0  0  0  0  0  5  0  0
   -1.1277    1.2648    0.7829 O   0  0  0  0  0  0  0  0  0  6  0  0
   -0.1281   -0.5088   -2.3373 H   0  0  0  0  0  0  0  0  0  7  0  0
   -1.5815    1.0533    1.6111 H   0  0  0  0  0  0  0  0  0  8  0  0
    1.1555    1.6392    1.7673 H   0  0  0  0  0  0  0  0  0  9  0  0
   -0.8524   -1.7757   -1.3643 H   0  0  0  0  0  0  0  0  0 10  0  0
    1.9858   -0.7550    0.4888 H   0  0  0  0  0  0  0  0  0 11  0  0
   -1.5441   -0.1431   -1.3349 H   0  0  0  0  0  0  0  0  0 12  0  0
  2  1  1  0
  4  1  1  0
  5  3  1  0
  5  1  2  0
  6  5  1  0
  7  4  1  0
  8  6  1  0
  9  3  1  0
 10  4  1  0
 11  2  1  0
 12  4  1  0
M  END
