
     RDKit          3D

 12 11  0  0  0  0  0  0  0  0999 V2000
    0.0620   -1.5751    0.0529 C   0  0  0  0  0  0  0  0  0  1  0  0
   -0.3785   -1.6395    1.1816 O   0  0  0  0  0  0  0  0  0  2  0  0
    0.1344    1.1081    1.3313 O   0  0  0  0  0  0  0  0  0  3  0  0
    0.6050   -0.3319   -0.5839 C   0  0  0  0  0  0  0  0  0  4  0  0
    0.0074    0.9637   -0.0528 C   0  0  0  0  0  0  0  0  0  5  0  0
   -1.3438    0.9780   -0.4830 O   0  0  0  0  0  0  0  0  0  6  0  0
   -1.7725    1.7094   -0.0186 H   0  0  0  0  0  0  0  0  0  7  0  0
    0.1025   -2.4898   -0.5711 H   0  0  0  0  0  0  0  0  0  8  0  0
   -0.1532    0.2609    1.7182 H   0  0  0  0  0  0  0  0  0  9  0  0
    1.6855   -0.3279   -0.4125 H   0  0  0  0  0  0  0  0  0 10  0  0
    0.5394    1.8164   -0.4863 H   0  0  0  0  0  0  0  0  0 11  0  0
    0.4615   -0.3923   -1.6632 H   0  0  0  0  0  0  0  0  0 12  0  0
  2  1  2  0
  4  1  1  0
  5  4  1  0
  5  3  1  0
  6  5  1  0
  7  6  1  0
  8  1  1  0
  9  3  1  0
 10  4  1  0
 11  5  1  0
 12  4  1  0
M  END
