
     RDKit          3D

 12 11  0  0  0  0  0  0  0  0999 V2000
    0.1756   -0.4916    0.2185 C   0  0  2  0  0  0  0  0  0  1  0  0
    1.4986   -0.9526    0.3460 O   0  0  0  0  0  0  0  0  0  2  0  0
    0.9854    1.4580    1.3510 O   0  0  0  0  0  0  0  0  0  3  0  0
   -0.2335   -0.4080   -1.2490 C   0  0  0  0  0  0  0  0  0  4  0  0
    0.0351    0.8579    0.9142 C   0  0  0  0  0  0  0  0  0  5  0  0
   -1.2107    1.3663    1.0298 O   0  0  0  0  0  0  0  0  0  6  0  0
    0.3844    0.3171   -1.7748 H   0  0  0  0  0  0  0  0  0  7  0  0
   -1.8532    0.7684    0.6203 H   0  0  0  0  0  0  0  0  0  8  0  0
   -0.4990   -1.1960    0.7280 H   0  0  0  0  0  0  0  0  0  9  0  0
   -0.0940   -1.3778   -1.7186 H   0  0  0  0  0  0  0  0  0 10  0  0
    1.9987   -0.2502    0.7943 H   0  0  0  0  0  0  0  0  0 11  0  0
   -1.2801   -0.1259   -1.3691 H   0  0  0  0  0  0  0  0  0 12  0  0
  2  1  1  0
  4  1  1  0
  5  3  2  0
  5  1  1  0
  6  5  1  0
  7  4  1  0
  8  6  1  0
  1  9  1  1
 10  4  1  0
 11  2  1  0
 12  4  1  0
M  END
