
     RDKit          3D

 12 10  0  0  0  0  0  0  0  0999 V2000
    0.5956    0.3504   -0.2868 C   0  0  0  0  0  0  0  0  0  1  0  0
   -0.5079   -1.0418    2.8584 O   0  0  0  0  0  0  0  0  0  2  0  0
   -0.9626   -0.3913   -1.9854 O   0  0  0  0  0  0  0  0  0  3  0  0
    1.2317    1.2507   -1.0315 C   0  0  0  0  0  0  0  0  0  4  0  0
   -0.6816   -0.2914   -0.6648 C   0  0  0  0  0  0  0  0  0  5  0  0
   -1.4762   -0.7254    0.1417 O   0  0  0  0  0  0  0  0  0  6  0  0
   -0.9927   -1.0055    2.0152 H   0  0  0  0  0  0  0  0  0  7  0  0
    0.9718    0.0800    0.6910 H   0  0  0  0  0  0  0  0  0  8  0  0
   -0.1963   -0.1185   -2.5084 H   0  0  0  0  0  0  0  0  0  9  0  0
    0.8446    1.6126   -1.9787 H   0  0  0  0  0  0  0  0  0 10  0  0
   -1.0807   -1.5390    3.4509 H   0  0  0  0  0  0  0  0  0 11  0  0
    2.1573    1.7013   -0.6987 H   0  0  0  0  0  0  0  0  0 12  0  0
  4  1  2  0
  5  3  1  0
  5  1  1  0
  6  5  2  0
  7  2  1  0
  8  1  1  0
  9  3  1  0
 10  4  1  0
 11  2  1  0
 12  4  1  0
M  END
