
     RDKit          3D

 12 10  0  0  0  0  0  0  0  0999 V2000
   -1.1084    0.8079   -0.2063 C   0  0  0  0  0  0  0  0  0  1  0  0
    2.2265   -0.7185   -0.0621 O   0  0  0  0  0  0  0  0  0  2  0  0
   -0.0071   -0.2447    1.6832 O   0  0  0  0  0  0  0  0  0  3  0  0
   -0.8504   -0.1074   -1.1361 C   0  0  0  0  0  0  0  0  0  4  0  0
   -0.9655    0.6077    1.2609 C   0  0  0  0  0  0  0  0  0  5  0  0
   -1.6837    1.1711    2.0563 O   0  0  0  0  0  0  0  0  0  6  0  0
    2.3135   -0.3179   -0.9334 H   0  0  0  0  0  0  0  0  0  7  0  0
   -1.5439    1.7589   -0.4830 H   0  0  0  0  0  0  0  0  0  8  0  0
    0.6420   -0.4518    0.9791 H   0  0  0  0  0  0  0  0  0  9  0  0
   -0.5004   -1.1011   -0.8846 H   0  0  0  0  0  0  0  0  0 10  0  0
    2.7410   -1.5304   -0.1084 H   0  0  0  0  0  0  0  0  0 11  0  0
   -1.0220    0.0911   -2.1861 H   0  0  0  0  0  0  0  0  0 12  0  0
  4  1  2  0
  5  3  1  0
  5  1  1  0
  6  5  2  0
  7  2  1  0
  8  1  1  0
  9  3  1  0
 10  4  1  0
 11  2  1  0
 12  4  1  0
M  END
