
     RDKit          3D

 12 10  0  0  0  0  0  0  0  0999 V2000
    0.0481   -0.2906   -0.6485 C   0  0  0  0  0  0  0  0  0  1  0  0
   -1.1660    0.2548   -0.5983 O   0  0  0  0  0  0  0  0  0  2  0  0
   -1.0616    1.2750    1.9456 O   0  0  0  0  0  0  0  0  0  3  0  0
    0.3123   -0.9645   -1.9577 C   0  0  0  0  0  0  0  0  0  4  0  0
    0.0483    0.9610    2.3399 C   0  0  0  0  0  0  0  0  0  5  0  0
    0.8477   -0.2440    0.2734 O   0  0  0  0  0  0  0  0  0  6  0  0
    1.3195   -1.3633   -1.9788 H   0  0  0  0  0  0  0  0  0  7  0  0
    0.9164    1.6284    2.2191 H   0  0  0  0  0  0  0  0  0  8  0  0
   -1.2552    0.6685    0.2924 H   0  0  0  0  0  0  0  0  0  9  0  0
   -0.4066   -1.7684   -2.1037 H   0  0  0  0  0  0  0  0  0 10  0  0
    0.2241    0.0221    2.8884 H   0  0  0  0  0  0  0  0  0 11  0  0
    0.1732   -0.2546   -2.7701 H   0  0  0  0  0  0  0  0  0 12  0  0
  2  1  1  0
  4  1  1  0
  5  3  2  0
  6  1  2  0
  7  4  1  0
  8  5  1  0
  9  2  1  0
 10  4  1  0
 11  5  1  0
 12  4  1  0
M  END
