
     RDKit          3D

 12 10  0  0  0  0  0  0  0  0999 V2000
   -0.0364   -1.7223   -0.0753 C   0  0  0  0  0  0  0  0  0  1  0  0
   -0.6191   -0.7953    0.7430 O   0  0  0  0  0  0  0  0  0  2  0  0
    0.5822    1.7155    0.7129 O   0  0  0  0  0  0  0  0  0  3  0  0
    1.1734   -1.6469   -0.6191 C   0  0  0  0  0  0  0  0  0  4  0  0
   -0.3642    2.3251    0.2551 C   0  0  0  0  0  0  0  0  0  5  0  0
   -1.5278    1.8134   -0.1242 O   0  0  0  0  0  0  0  0  0  6  0  0
   -1.5065    0.8424    0.0124 H   0  0  0  0  0  0  0  0  0  7  0  0
   -0.6938   -2.5703   -0.2347 H   0  0  0  0  0  0  0  0  0  8  0  0
    0.0378   -0.0829    0.9096 H   0  0  0  0  0  0  0  0  0  9  0  0
    1.8162   -0.7929   -0.4596 H   0  0  0  0  0  0  0  0  0 10  0  0
   -0.3624    3.4106    0.0998 H   0  0  0  0  0  0  0  0  0 11  0  0
    1.5450   -2.4469   -1.2420 H   0  0  0  0  0  0  0  0  0 12  0  0
  2  1  1  0
  4  1  2  0
  5  3  2  0
  6  5  1  0
  7  6  1  0
  8  1  1  0
  9  2  1  0
 10  4  1  0
 11  5  1  0
 12  4  1  0
M  END
