
     RDKit          3D

 12 10  0  0  0  0  0  0  0  0999 V2000
   -0.2186   -1.3393   -0.1381 C   0  0  0  0  0  0  0  0  0  1  0  0
   -0.5492   -1.3907    1.0267 O   0  0  0  0  0  0  0  0  0  2  0  0
   -0.0153    1.2374    2.1589 O   0  0  0  0  0  0  0  0  0  3  0  0
    0.6899   -0.2948   -0.7277 C   0  0  0  0  0  0  0  0  0  4  0  0
   -0.1631    0.6608   -1.5394 C   0  0  0  0  0  0  0  0  0  5  0  0
   -0.1985    0.6826   -2.7448 O   0  0  0  0  0  0  0  0  0  6  0  0
   -0.2700    1.5601    3.0286 H   0  0  0  0  0  0  0  0  0  7  0  0
   -0.6243   -2.0710   -0.8626 H   0  0  0  0  0  0  0  0  0  8  0  0
   -0.3472    0.3279    2.1202 H   0  0  0  0  0  0  0  0  0  9  0  0
    1.1724    0.2525    0.0826 H   0  0  0  0  0  0  0  0  0 10  0  0
   -0.7934    1.3355   -0.9279 H   0  0  0  0  0  0  0  0  0 11  0  0
    1.4180   -0.7603   -1.3912 H   0  0  0  0  0  0  0  0  0 12  0  0
  2  1  2  0
  4  1  1  0
  5  4  1  0
  6  5  2  0
  7  3  1  0
  8  1  1  0
  9  3  1  0
 10  4  1  0
 11  5  1  0
 12  4  1  0
M  END
