
     RDKit          3D

 12 11  0  0  0  0  0  0  0  0999 V2000
   -0.1481    1.2820   -0.4082 C   0  0  2  0  0  0  0  0  0  1  0  0
    0.1987   -2.1550    1.2910 O   0  0  0  0  0  0  0  0  0  2  0  0
   -2.1511    0.0041    0.5935 O   0  0  0  0  0  0  0  0  0  3  0  0
    1.1372    0.5767   -0.6723 C   0  0  0  0  0  0  0  0  0  4  0  0
   -1.3914    0.6062   -0.1100 C   0  0  0  0  0  0  0  0  0  5  0  0
   -1.3076    0.9678   -1.3835 O   0  0  0  0  0  0  0  0  0  6  0  0
   -0.6847   -1.7680    1.3286 H   0  0  0  0  0  0  0  0  0  7  0  0
   -0.0962    2.3538   -0.2330 H   0  0  0  0  0  0  0  0  0  8  0  0
    1.8310    0.8175    0.1318 H   0  0  0  0  0  0  0  0  0  9  0  0
    1.0167   -0.5031   -0.7002 H   0  0  0  0  0  0  0  0  0 10  0  0
    0.1189   -2.9884    1.7662 H   0  0  0  0  0  0  0  0  0 11  0  0
    1.5733    0.9241   -1.6068 H   0  0  0  0  0  0  0  0  0 12  0  0
  4  1  1  0
  5  3  2  0
  5  1  1  0
  6  5  1  0
  6  1  1  0
  7  2  1  0
  1  8  1  1
  9  4  1  0
 10  4  1  0
 11  2  1  0
 12  4  1  0
M  END
