
     RDKit          3D

 12 10  0  0  0  0  0  0  0  0999 V2000
    0.5019    1.1723   -1.0953 C   0  0  0  0  0  0  0  0  0  1  0  0
    1.0663    0.0273   -1.5450 O   0  0  0  0  0  0  0  0  0  2  0  0
    0.7643   -0.9608    2.5190 O   0  0  0  0  0  0  0  0  0  3  0  0
   -0.7756    1.3863   -0.7704 C   0  0  0  0  0  0  0  0  0  4  0  0
    0.2621   -1.6755    1.6932 C   0  0  0  0  0  0  0  0  0  5  0  0
   -0.5481   -1.2753    0.6880 O   0  0  0  0  0  0  0  0  0  6  0  0
   -0.6301   -0.3013    0.7387 H   0  0  0  0  0  0  0  0  0  7  0  0
    1.2511    1.9505   -1.0143 H   0  0  0  0  0  0  0  0  0  8  0  0
    0.4350   -0.7003   -1.4517 H   0  0  0  0  0  0  0  0  0  9  0  0
   -1.5547    0.6572   -0.9492 H   0  0  0  0  0  0  0  0  0 10  0  0
    0.3823   -2.7633    1.6351 H   0  0  0  0  0  0  0  0  0 11  0  0
   -1.0866    2.3587   -0.4221 H   0  0  0  0  0  0  0  0  0 12  0  0
  2  1  1  0
  4  1  2  0
  5  3  2  0
  6  5  1  0
  7  6  1  0
  8  1  1  0
  9  2  1  0
 10  4  1  0
 11  5  1  0
 12  4  1  0
M  END
