
     RDKit          3D

 12 10  0  0  0  0  0  0  0  0999 V2000
    0.0051   -0.2275   -0.3625 C   0  0  0  0  0  0  0  0  0  1  0  0
    0.4257    1.0957    2.7040 O   0  0  0  0  0  0  0  0  0  2  0  0
   -0.5125   -1.7435   -2.1802 O   0  0  0  0  0  0  0  0  0  3  0  0
   -0.3673    0.8969   -0.9666 C   0  0  0  0  0  0  0  0  0  4  0  0
    0.1718   -1.5416   -1.0199 C   0  0  0  0  0  0  0  0  0  5  0  0
    0.8691   -2.4218   -0.5761 O   0  0  0  0  0  0  0  0  0  6  0  0
    0.2695   -0.2164    0.6878 H   0  0  0  0  0  0  0  0  0  7  0  0
    0.9623    0.5059    3.2446 H   0  0  0  0  0  0  0  0  0  8  0  0
   -1.1067   -0.9977   -2.3416 H   0  0  0  0  0  0  0  0  0  9  0  0
   -0.5476    0.9641   -2.0351 H   0  0  0  0  0  0  0  0  0 10  0  0
    0.2726    1.8596    3.2690 H   0  0  0  0  0  0  0  0  0 11  0  0
   -0.4677    1.8198   -0.4121 H   0  0  0  0  0  0  0  0  0 12  0  0
  4  1  2  0
  5  3  1  0
  5  1  1  0
  6  5  2  0
  7  1  1  0
  8  2  1  0
  9  3  1  0
 10  4  1  0
 11  2  1  0
 12  4  1  0
M  END
