
     RDKit          3D

 12 10  0  0  0  0  0  0  0  0999 V2000
   -0.7556   -0.0631   -1.6369 C   0  0  0  0  0  0  0  0  0  1  0  0
   -1.3617   -0.1763   -0.5856 O   0  0  0  0  0  0  0  0  0  2  0  0
    0.3953    0.0308    1.5689 O   0  0  0  0  0  0  0  0  0  3  0  0
    0.7151    0.1128   -1.7675 C   0  0  0  0  0  0  0  0  0  4  0  0
   -0.0733   -0.0878    2.8254 C   0  0  0  0  0  0  0  0  0  5  0  0
    0.6266   -0.0039    3.7983 O   0  0  0  0  0  0  0  0  0  6  0  0
    0.9217    1.0566   -2.2754 H   0  0  0  0  0  0  0  0  0  7  0  0
   -1.3229   -0.0870   -2.5865 H   0  0  0  0  0  0  0  0  0  8  0  0
   -0.3267   -0.0602    0.9072 H   0  0  0  0  0  0  0  0  0  9  0  0
    1.2196    0.1001   -0.8061 H   0  0  0  0  0  0  0  0  0 10  0  0
   -1.1620   -0.2698    2.8653 H   0  0  0  0  0  0  0  0  0 11  0  0
    1.1233   -0.6690   -2.4098 H   0  0  0  0  0  0  0  0  0 12  0  0
  2  1  2  0
  4  1  1  0
  5  3  1  0
  6  5  2  0
  7  4  1  0
  8  1  1  0
  9  3  1  0
 10  4  1  0
 11  5  1  0
 12  4  1  0
M  END
