
     RDKit          3D

 12 10  0  0  0  0  0  0  0  0999 V2000
    0.5774    0.4221   -0.6204 C   0  0  0  0  0  3  0  0  0  1  0  0
    1.6708   -0.1369   -0.0743 O   0  0  0  0  0  0  0  0  0  2  0  0
   -0.1426    0.1856    2.4884 O   0  0  0  0  0  0  0  0  0  3  0  0
   -0.2316   -0.3906   -1.5524 C   0  0  0  0  0  0  0  0  0  4  0  0
   -0.8705    0.7522    1.4707 C   0  0  0  0  0  0  0  0  0  5  0  0
   -2.0564    0.8246    1.5508 O   0  0  0  0  0  3  0  0  0  6  0  0
    0.2741   -0.5054   -2.5186 H   0  0  0  0  0  0  0  0  0  7  0  0
   -0.0369    1.0197    0.2219 H   0  0  0  0  0  0  0  0  0  8  0  0
    0.7802    0.1470    2.1949 H   0  0  0  0  0  0  0  0  0  9  0  0
   -0.4217   -1.3928   -1.1553 H   0  0  0  0  0  0  0  0  0 10  0  0
    1.8324   -1.0044   -0.4851 H   0  0  0  0  0  0  0  0  0 11  0  0
   -1.1929    0.0837   -1.7307 H   0  0  0  0  0  0  0  0  0 12  0  0
  2  1  1  0
  4  1  1  0
  5  3  1  0
  6  5  3  0
  7  4  1  0
  8  1  1  0
  9  3  1  0
 10  4  1  0
 11  2  1  0
 12  4  1  0
M  CHG  2   1  -1   6   1
M  END
