
     RDKit          3D

 12 11  0  0  0  0  0  0  0  0999 V2000
   -0.3090   -2.4501    0.3377 C   0  0  0  0  0  3  0  0  0  1  0  0
    0.3600   -1.3753    0.5866 O   0  0  0  0  0  3  0  0  0  2  0  0
    0.4196    1.6040    1.0711 O   0  0  0  0  0  0  0  0  0  3  0  0
    0.6684   -0.3410   -0.4273 C   0  0  0  0  0  0  0  0  0  4  0  0
   -0.0201    0.9698   -0.1087 C   0  0  0  0  0  0  0  0  0  5  0  0
   -1.4128    0.7395   -0.1237 O   0  0  0  0  0  0  0  0  0  6  0  0
   -1.8397    1.5515    0.1824 H   0  0  0  0  0  0  0  0  0  7  0  0
   -0.6098   -2.4383   -0.7539 H   0  0  0  0  0  0  0  0  0  8  0  0
    0.2978    0.9990    1.8161 H   0  0  0  0  0  0  0  0  0  9  0  0
    1.7479   -0.2087   -0.3907 H   0  0  0  0  0  0  0  0  0 10  0  0
    0.2608    1.6734   -0.9055 H   0  0  0  0  0  0  0  0  0 11  0  0
    0.3631   -0.7281   -1.4000 H   0  0  0  0  0  0  0  0  0 12  0  0
  2  1  2  0
  4  2  1  0
  5  4  1  0
  5  3  1  0
  6  5  1  0
  7  6  1  0
  8  1  1  0
  9  3  1  0
 10  4  1  0
 11  5  1  0
 12  4  1  0
M  CHG  2   1  -1   2   1
M  END
