
     RDKit          3D

 12 10  0  0  0  0  0  0  0  0999 V2000
    0.7534   -0.3556   -1.5749 C   0  0  0  0  0  0  0  0  0  1  0  0
    0.8599   -1.0440   -0.5750 O   0  0  0  0  0  0  0  0  0  2  0  0
   -0.6033    0.0424    1.5380 O   0  0  0  0  0  0  0  0  0  3  0  0
   -0.0090    0.9178   -1.6662 C   0  0  0  0  0  0  0  0  0  4  0  0
   -0.5567   -0.5533    2.7444 C   0  0  0  0  0  0  0  0  0  5  0  0
   -1.1524   -0.1430    3.7037 O   0  0  0  0  0  0  0  0  0  6  0  0
   -0.7929    0.8150   -2.4187 H   0  0  0  0  0  0  0  0  0  7  0  0
    1.2527   -0.6839   -2.5060 H   0  0  0  0  0  0  0  0  0  8  0  0
   -0.0536   -0.4398    0.8805 H   0  0  0  0  0  0  0  0  0  9  0  0
   -0.4515    1.2038   -0.7169 H   0  0  0  0  0  0  0  0  0 10  0  0
    0.0836   -1.4532    2.7574 H   0  0  0  0  0  0  0  0  0 11  0  0
    0.6470    1.7131   -2.0232 H   0  0  0  0  0  0  0  0  0 12  0  0
  2  1  2  0
  4  1  1  0
  5  3  1  0
  6  5  2  0
  7  4  1  0
  8  1  1  0
  9  3  1  0
 10  4  1  0
 11  5  1  0
 12  4  1  0
M  END
