
     RDKit          3D

 12 10  0  0  0  0  0  0  0  0999 V2000
   -0.9709    0.1945   -0.5948 C   0  0  0  0  0  0  0  0  0  1  0  0
   -2.1884    0.4600   -1.0907 O   0  0  0  0  0  0  0  0  0  2  0  0
    0.1322   -0.2139    2.5660 O   0  0  0  0  0  0  0  0  0  3  0  0
    0.1014    0.1151   -1.4055 C   0  0  0  0  0  0  0  0  0  4  0  0
    1.4210   -0.1705   -0.9044 C   0  0  0  0  0  0  0  0  0  5  0  0
    1.7402   -0.3709    0.2666 O   0  0  0  0  0  0  0  0  0  6  0  0
    0.5697   -0.3943    3.4034 H   0  0  0  0  0  0  0  0  0  7  0  0
   -0.8993    0.0493    0.4802 H   0  0  0  0  0  0  0  0  0  8  0  0
    0.8370   -0.3028    1.8921 H   0  0  0  0  0  0  0  0  0  9  0  0
   -0.0239    0.2683   -2.4694 H   0  0  0  0  0  0  0  0  0 10  0  0
    2.2081   -0.2071   -1.6797 H   0  0  0  0  0  0  0  0  0 11  0  0
   -2.8416    0.4824   -0.3804 H   0  0  0  0  0  0  0  0  0 12  0  0
  2  1  1  0
  4  1  2  0
  5  4  1  0
  6  5  2  0
  7  3  1  0
  8  1  1  0
  9  3  1  0
 10  4  1  0
 11  5  1  0
 12  2  1  0
M  END
