
     RDKit          3D

 12 10  0  0  0  0  0  0  0  0999 V2000
   -0.3759   -2.4834   -0.0411 C   0  0  0  0  0  3  0  0  0  1  0  0
    0.0201   -1.3437    0.4173 O   0  0  0  0  0  3  0  0  0  2  0  0
   -0.5234    1.9063    1.7509 O   0  0  0  0  0  0  0  0  0  3  0  0
    0.7962   -0.3860   -0.3584 C   0  0  0  0  0  0  0  0  0  4  0  0
   -0.0702    0.6509   -1.0127 C   0  0  0  0  0  0  0  0  0  5  0  0
   -1.2782    0.6628   -0.9987 O   0  0  0  0  0  0  0  0  0  6  0  0
   -1.2544    1.6164    1.1918 H   0  0  0  0  0  0  0  0  0  7  0  0
    0.0130   -2.5954   -1.1012 H   0  0  0  0  0  0  0  0  0  8  0  0
   -0.6856    1.4686    2.5935 H   0  0  0  0  0  0  0  0  0  9  0  0
    1.4796    0.0931    0.3430 H   0  0  0  0  0  0  0  0  0 10  0  0
    0.5100    1.4445   -1.5297 H   0  0  0  0  0  0  0  0  0 11  0  0
    1.3791   -0.9162   -1.1187 H   0  0  0  0  0  0  0  0  0 12  0  0
  2  1  2  0
  4  2  1  0
  5  4  1  0
  6  5  2  0
  7  3  1  0
  8  1  1  0
  9  3  1  0
 10  4  1  0
 11  5  1  0
 12  4  1  0
M  CHG  2   1  -1   2   1
M  END
