
     RDKit          3D

 12 10  0  0  0  0  0  0  0  0999 V2000
    0.6376    0.2898   -1.1287 C   0  0  0  0  0  0  0  0  0  1  0  0
    1.3945   -0.3869   -0.4672 O   0  0  0  0  0  0  0  0  0  2  0  0
    0.2021    0.7222    2.9378 O   0  0  0  0  0  0  0  0  0  3  0  0
   -0.3959   -0.2418   -2.0651 C   0  0  0  0  0  0  0  0  0  4  0  0
   -0.3871   -0.1244    2.0631 C   0  0  0  0  0  0  0  0  0  5  0  0
   -1.3778    0.1774    1.4597 O   0  0  0  0  0  0  0  0  0  6  0  0
   -0.3062    0.2350   -3.0428 H   0  0  0  0  0  0  0  0  0  7  0  0
    0.6676    1.3974   -1.0506 H   0  0  0  0  0  0  0  0  0  8  0  0
    1.0380    0.3475    3.2460 H   0  0  0  0  0  0  0  0  0  9  0  0
   -0.3176   -1.3204   -2.1645 H   0  0  0  0  0  0  0  0  0 10  0  0
    0.1205   -1.0930    1.9781 H   0  0  0  0  0  0  0  0  0 11  0  0
   -1.3828    0.0159   -1.6771 H   0  0  0  0  0  0  0  0  0 12  0  0
  2  1  2  0
  4  1  1  0
  5  3  1  0
  6  5  2  0
  7  4  1  0
  8  1  1  0
  9  3  1  0
 10  4  1  0
 11  5  1  0
 12  4  1  0
M  END
