
     RDKit          3D

 12 11  0  0  0  0  0  0  0  0999 V2000
    0.3652   -0.5494   -0.2998 C   0  0  0  0  0  0  0  0  0  1  0  0
    1.0048   -1.5400   -0.0017 O   0  0  0  0  0  0  0  0  0  2  0  0
    0.8500    0.2209    1.9271 O   0  0  0  0  0  0  0  0  0  3  0  0
   -0.2450   -0.3154   -1.6400 C   0  0  0  0  0  0  0  0  0  4  0  0
    0.1387    0.5283    0.7762 C   0  0  0  0  0  0  0  0  0  5  0  0
   -1.2678    0.5614    0.9626 O   0  0  0  0  0  0  0  0  0  6  0  0
    0.1160    0.6254   -2.0571 H   0  0  0  0  0  0  0  0  0  7  0  0
   -1.4370    1.0578    1.7737 H   0  0  0  0  0  0  0  0  0  8  0  0
    0.4827    1.5059    0.4107 H   0  0  0  0  0  0  0  0  0  9  0  0
   -0.0060   -1.1303   -2.3151 H   0  0  0  0  0  0  0  0  0 10  0  0
    1.0980   -0.7188    1.8502 H   0  0  0  0  0  0  0  0  0 11  0  0
   -1.3249   -0.2145   -1.5341 H   0  0  0  0  0  0  0  0  0 12  0  0
  2  1  2  0
  4  1  1  0
  5  3  1  0
  5  1  1  0
  6  5  1  0
  7  4  1  0
  8  6  1  0
  9  5  1  0
 10  4  1  0
 11  3  1  0
 12  4  1  0
M  END
