
     RDKit          3D

 12 11  0  0  0  0  0  0  0  0999 V2000
   -0.7885    0.5329   -0.0920 C   0  0  0  0  0  0  0  0  0  1  0  0
   -1.9214   -0.2766    0.2389 O   0  0  0  0  0  0  0  0  0  2  0  0
    0.5112   -1.1832    1.0269 O   0  0  0  0  0  0  0  0  0  3  0  0
    0.3811   -0.4293   -0.1654 C   0  0  2  0  0  0  0  0  0  4  0  0
    1.6930    0.2823   -0.4251 C   0  0  0  0  0  0  0  0  0  5  0  0
    1.7931    1.2868   -1.0892 O   0  0  0  0  0  0  0  0  0  6  0  0
   -0.5969    1.2750    0.6872 H   0  0  0  0  0  0  0  0  0  7  0  0
   -0.9140    1.0484   -1.0454 H   0  0  0  0  0  0  0  0  0  8  0  0
   -0.3912   -1.4346    1.2691 H   0  0  0  0  0  0  0  0  0  9  0  0
    0.2165   -1.0999   -1.0251 H   0  0  0  0  0  0  0  0  0 10  0  0
    2.5759   -0.2108    0.0307 H   0  0  0  0  0  0  0  0  0 11  0  0
   -2.6443    0.2987    0.5063 H   0  0  0  0  0  0  0  0  0 12  0  0
  2  1  1  0
  4  3  1  0
  4  1  1  0
  5  4  1  0
  6  5  2  0
  7  1  1  0
  8  1  1  0
  9  3  1  0
  4 10  1  6
 11  5  1  0
 12  2  1  0
M  END
