
     RDKit          3D

 12 10  0  0  0  0  0  0  0  0999 V2000
    0.0394    0.4891   -1.0764 C   0  0  0  0  0  0  0  0  0  1  0  0
   -1.0481    0.8507   -0.6612 O   0  0  0  0  0  0  0  0  0  2  0  0
   -1.1067    0.7733    2.0920 O   0  0  0  0  0  0  0  0  0  3  0  0
    0.2689   -0.7552   -1.8527 C   0  0  0  0  0  0  0  0  0  4  0  0
    0.0376    0.1370    2.3230 C   0  0  0  0  0  0  0  0  0  5  0  0
    0.8345   -0.2430    1.4902 O   0  0  0  0  0  0  0  0  0  6  0  0
    0.8333   -1.4505   -1.2281 H   0  0  0  0  0  0  0  0  0  7  0  0
    0.9390    1.1005   -0.8913 H   0  0  0  0  0  0  0  0  0  8  0  0
   -1.1977    0.8813    1.1132 H   0  0  0  0  0  0  0  0  0  9  0  0
   -0.6681   -1.2159   -2.1504 H   0  0  0  0  0  0  0  0  0 10  0  0
    0.1782   -0.0064    3.4055 H   0  0  0  0  0  0  0  0  0 11  0  0
    0.8875   -0.5497   -2.7266 H   0  0  0  0  0  0  0  0  0 12  0  0
  2  1  2  0
  4  1  1  0
  5  3  1  0
  6  5  2  0
  7  4  1  0
  8  1  1  0
  9  3  1  0
 10  4  1  0
 11  5  1  0
 12  4  1  0
M  END
