
     RDKit          3D

 12 11  0  0  0  0  0  0  0  0999 V2000
   -0.4590   -0.4117   -0.4860 C   0  0  0  0  0  0  0  0  0  1  0  0
   -1.4116   -1.0815   -0.8382 O   0  0  0  0  0  0  0  0  0  2  0  0
    0.7920   -0.3737    1.5997 O   0  0  0  0  0  0  0  0  0  3  0  0
    0.6654   -0.0266   -1.4031 C   0  0  0  0  0  0  0  0  0  4  0  0
   -0.3858    0.0747    0.9718 C   0  0  0  0  0  0  0  0  0  5  0  0
   -0.3053    1.4790    1.0360 O   0  0  0  0  0  0  0  0  0  6  0  0
    0.7557    1.0584   -1.4525 H   0  0  0  0  0  0  0  0  0  7  0  0
   -1.1713    1.8397    0.8145 H   0  0  0  0  0  0  0  0  0  8  0  0
    0.6978   -1.3167    1.7762 H   0  0  0  0  0  0  0  0  0  9  0  0
    1.6127   -0.3976   -1.0121 H   0  0  0  0  0  0  0  0  0 10  0  0
   -1.2780   -0.2959    1.4901 H   0  0  0  0  0  0  0  0  0 11  0  0
    0.4878   -0.4313   -2.3937 H   0  0  0  0  0  0  0  0  0 12  0  0
  2  1  2  0
  4  1  1  0
  5  3  1  0
  5  1  1  0
  6  5  1  0
  7  4  1  0
  8  6  1  0
  9  3  1  0
 10  4  1  0
 11  5  1  0
 12  4  1  0
M  END
