
     RDKit          3D

 12 10  0  0  0  0  0  0  0  0999 V2000
   -0.1468   -1.3751   -0.0688 C   0  0  0  0  0  0  0  0  0  1  0  0
   -0.2119   -1.5047    1.1339 O   0  0  0  0  0  0  0  0  0  2  0  0
   -0.4136    1.3410    1.8654 O   0  0  0  0  0  0  0  0  0  3  0  0
    0.7716   -0.4218   -0.7849 C   0  0  0  0  0  0  0  0  0  4  0  0
   -0.0621    0.7283   -1.3325 C   0  0  0  0  0  0  0  0  0  5  0  0
   -0.3817    0.8273   -2.4917 O   0  0  0  0  0  0  0  0  0  6  0  0
   -0.6680    1.7754    2.6845 H   0  0  0  0  0  0  0  0  0  7  0  0
   -0.8227   -1.9517   -0.7283 H   0  0  0  0  0  0  0  0  0  8  0  0
   -0.4318    0.3934    2.0615 H   0  0  0  0  0  0  0  0  0  9  0  0
    1.5096   -0.0438   -0.0776 H   0  0  0  0  0  0  0  0  0 10  0  0
   -0.3868    1.4553   -0.5681 H   0  0  0  0  0  0  0  0  0 11  0  0
    1.2442   -0.9277   -1.6266 H   0  0  0  0  0  0  0  0  0 12  0  0
  2  1  2  0
  4  1  1  0
  5  4  1  0
  6  5  2  0
  7  3  1  0
  8  1  1  0
  9  3  1  0
 10  4  1  0
 11  5  1  0
 12  4  1  0
M  END
