
     RDKit          3D

 12 10  0  0  0  0  0  0  0  0999 V2000
    0.2875   -0.0405   -1.7191 C   0  0  0  0  0  0  0  0  0  1  0  0
   -0.4216    0.9099   -1.4442 O   0  0  0  0  0  0  0  0  0  2  0  0
   -1.2102    1.3882    1.1802 O   0  0  0  0  0  0  0  0  0  3  0  0
    0.3938   -1.2784   -0.9000 C   0  0  0  0  0  0  0  0  0  4  0  0
   -0.3508    0.9486    2.1007 C   0  0  0  0  0  0  0  0  0  5  0  0
    0.6716    0.3273    1.9074 O   0  0  0  0  0  0  0  0  0  6  0  0
    1.0128   -1.0669   -0.0266 H   0  0  0  0  0  0  0  0  0  7  0  0
    0.9141    0.0158   -2.6290 H   0  0  0  0  0  0  0  0  0  8  0  0
   -0.8819    1.1610    0.2723 H   0  0  0  0  0  0  0  0  0  9  0  0
   -0.5855   -1.5654   -0.5232 H   0  0  0  0  0  0  0  0  0 10  0  0
   -0.7090    1.2312    3.1027 H   0  0  0  0  0  0  0  0  0 11  0  0
    0.8403   -2.0995   -1.4544 H   0  0  0  0  0  0  0  0  0 12  0  0
  2  1  2  0
  4  1  1  0
  5  3  1  0
  6  5  2  0
  7  4  1  0
  8  1  1  0
  9  3  1  0
 10  4  1  0
 11  5  1  0
 12  4  1  0
M  END
