
     RDKit          3D

 12 10  0  0  0  0  0  0  0  0999 V2000
    0.2702    1.1045   -1.3593 C   0  0  0  0  0  0  0  0  0  1  0  0
    0.9065    0.0672   -1.3592 O   0  0  0  0  0  0  0  0  0  2  0  0
   -0.4844   -1.0557    1.7466 O   0  0  0  0  0  0  0  0  0  3  0  0
   -0.6967    1.5333   -0.3151 C   0  0  0  0  0  0  0  0  0  4  0  0
    0.2104   -2.0012    1.4419 C   0  0  0  0  0  0  0  0  0  5  0  0
    0.9693   -2.1196    0.3541 O   0  0  0  0  0  0  0  0  0  6  0  0
   -0.7926    0.8012    0.4794 H   0  0  0  0  0  0  0  0  0  7  0  0
    0.4079    1.8093   -2.2034 H   0  0  0  0  0  0  0  0  0  8  0  0
    0.8923   -1.3027   -0.1988 H   0  0  0  0  0  0  0  0  0  9  0  0
   -1.6715    1.7098   -0.7729 H   0  0  0  0  0  0  0  0  0 10  0  0
    0.2978   -2.9110    2.0567 H   0  0  0  0  0  0  0  0  0 11  0  0
   -0.3771    2.4891    0.1039 H   0  0  0  0  0  0  0  0  0 12  0  0
  2  1  2  0
  4  1  1  0
  5  3  2  0
  6  5  1  0
  7  4  1  0
  8  1  1  0
  9  6  1  0
 10  4  1  0
 11  5  1  0
 12  4  1  0
M  END
