
     RDKit          3D

 12 11  0  0  0  0  0  0  0  0999 V2000
    0.3623   -1.1536   -0.5973 C   0  0  0  0  0  0  0  0  0  1  0  0
    1.2743   -2.1259   -0.8916 O   0  0  0  0  0  0  0  0  0  2  0  0
   -0.1925    1.4377    1.5722 O   0  0  0  0  0  0  0  0  0  3  0  0
    0.7271    0.0510   -0.1699 C   0  0  0  0  0  0  0  0  0  4  0  0
   -0.2519    1.1124    0.1864 C   0  0  0  0  0  0  0  0  0  5  0  0
   -1.5532    0.7033   -0.1898 O   0  0  0  0  0  0  0  0  0  6  0  0
   -2.1550    1.3392    0.2185 H   0  0  0  0  0  0  0  0  0  7  0  0
   -0.6844   -1.4045   -0.7351 H   0  0  0  0  0  0  0  0  0  8  0  0
   -0.1740    0.5954    2.0470 H   0  0  0  0  0  0  0  0  0  9  0  0
    1.7756    0.2975   -0.0580 H   0  0  0  0  0  0  0  0  0 10  0  0
    0.0030    2.0550   -0.3098 H   0  0  0  0  0  0  0  0  0 11  0  0
    0.8141   -2.9178   -1.1903 H   0  0  0  0  0  0  0  0  0 12  0  0
  2  1  1  0
  4  1  2  0
  5  4  1  0
  5  3  1  0
  6  5  1  0
  7  6  1  0
  8  1  1  0
  9  3  1  0
 10  4  1  0
 11  5  1  0
 12  2  1  0
M  END
