
     RDKit          3D

 12 10  0  0  0  0  0  0  0  0999 V2000
   -0.1431   -0.3626   -1.0752 C   0  0  0  0  0  0  0  0  0  1  0  0
   -1.0960    0.4974   -0.6975 O   0  0  0  0  0  0  0  0  0  2  0  0
   -0.9078    1.5338    1.9879 O   0  0  0  0  0  0  0  0  0  3  0  0
   -0.1087   -0.9707   -2.2606 C   0  0  0  0  0  0  0  0  0  4  0  0
    0.0641    1.0336    2.5007 C   0  0  0  0  0  0  0  0  0  5  0  0
    0.7923   -0.5317   -0.0796 O   0  0  0  0  0  0  0  0  0  6  0  0
    1.4596   -1.1489   -0.4006 H   0  0  0  0  0  0  0  0  0  7  0  0
    1.0494    1.5365    2.4978 H   0  0  0  0  0  0  0  0  0  8  0  0
   -0.9238    0.7938    0.2156 H   0  0  0  0  0  0  0  0  0  9  0  0
    0.6833   -1.6591   -2.5163 H   0  0  0  0  0  0  0  0  0 10  0  0
    0.0173    0.0384    2.9792 H   0  0  0  0  0  0  0  0  0 11  0  0
   -0.8783   -0.7863   -2.9919 H   0  0  0  0  0  0  0  0  0 12  0  0
  2  1  1  0
  4  1  2  0
  5  3  2  0
  6  1  1  0
  7  6  1  0
  8  5  1  0
  9  2  1  0
 10  4  1  0
 11  5  1  0
 12  4  1  0
M  END
