
     RDKit          3D

 12 11  0  0  0  0  0  0  0  0999 V2000
   -0.2766   -2.4681    0.1386 C   0  0  0  0  0  3  0  0  0  1  0  0
    0.2094   -1.3832    0.6404 O   0  0  0  0  0  3  0  0  0  2  0  0
   -0.0618    1.5670    1.2159 O   0  0  0  0  0  0  0  0  0  3  0  0
    0.7926   -0.2883   -0.1686 C   0  0  0  0  0  0  0  0  0  4  0  0
   -0.0326    0.9773   -0.0642 C   0  0  0  0  0  0  0  0  0  5  0  0
   -1.3204    0.6948   -0.5696 O   0  0  0  0  0  0  0  0  0  6  0  0
   -1.8701    1.4722   -0.3999 H   0  0  0  0  0  0  0  0  0  7  0  0
   -0.1849   -2.4123   -0.9886 H   0  0  0  0  0  0  0  0  0  8  0  0
   -0.4013    0.9208    1.8508 H   0  0  0  0  0  0  0  0  0  9  0  0
    1.7849   -0.1164    0.2437 H   0  0  0  0  0  0  0  0  0 10  0  0
    0.4674    1.7309   -0.6892 H   0  0  0  0  0  0  0  0  0 11  0  0
    0.8617   -0.6380   -1.1992 H   0  0  0  0  0  0  0  0  0 12  0  0
  2  1  2  0
  4  2  1  0
  5  4  1  0
  5  3  1  0
  6  5  1  0
  7  6  1  0
  8  1  1  0
  9  3  1  0
 10  4  1  0
 11  5  1  0
 12  4  1  0
M  CHG  2   1  -1   2   1
M  END
