
     RDKit          3D

 12 11  0  0  0  0  0  0  0  0999 V2000
    0.3531   -0.5669   -0.2950 C   0  0  0  0  0  0  0  0  0  1  0  0
    0.9390   -1.5905    0.0019 O   0  0  0  0  0  0  0  0  0  2  0  0
    0.8379    0.1552    1.9479 O   0  0  0  0  0  0  0  0  0  3  0  0
   -0.2230   -0.2896   -1.6420 C   0  0  0  0  0  0  0  0  0  4  0  0
    0.1614    0.5091    0.7894 C   0  0  0  0  0  0  0  0  0  5  0  0
   -1.2447    0.6077    0.9537 O   0  0  0  0  0  0  0  0  0  6  0  0
    0.1926    0.6351   -2.0445 H   0  0  0  0  0  0  0  0  0  7  0  0
   -1.4037    1.1093    1.7636 H   0  0  0  0  0  0  0  0  0  8  0  0
    0.5578    1.4729    0.4407 H   0  0  0  0  0  0  0  0  0  9  0  0
   -0.0161   -1.1100   -2.3212 H   0  0  0  0  0  0  0  0  0 10  0  0
    1.0438   -0.7938    1.8628 H   0  0  0  0  0  0  0  0  0 11  0  0
   -1.2979   -0.1338   -1.5517 H   0  0  0  0  0  0  0  0  0 12  0  0
  2  1  2  0
  4  1  1  0
  5  3  1  0
  5  1  1  0
  6  5  1  0
  7  4  1  0
  8  6  1  0
  9  5  1  0
 10  4  1  0
 11  3  1  0
 12  4  1  0
M  END
