
     RDKit          3D

 12 11  0  0  0  0  0  0  0  0999 V2000
   -0.9382    0.9415   -0.2217 C   0  0  2  0  0  0  0  0  0  1  0  0
    2.1147   -1.3040    0.4390 O   0  0  0  0  0  0  0  0  0  2  0  0
    0.1790    0.7384    2.0933 O   0  0  0  0  0  0  0  0  0  3  0  0
   -0.6615   -0.0669   -1.2826 C   0  0  0  0  0  0  0  0  0  4  0  0
   -0.5824    0.7676    1.1691 C   0  0  0  0  0  0  0  0  0  5  0  0
   -1.8552    0.4765    0.9347 O   0  0  0  0  0  0  0  0  0  6  0  0
    0.0672    0.3547   -1.9734 H   0  0  0  0  0  0  0  0  0  7  0  0
   -1.2364    1.9341   -0.5503 H   0  0  0  0  0  0  0  0  0  8  0  0
    1.8399   -0.7607    1.1879 H   0  0  0  0  0  0  0  0  0  9  0  0
   -0.2487   -0.9878   -0.8788 H   0  0  0  0  0  0  0  0  0 10  0  0
    2.8629   -1.8117    0.7690 H   0  0  0  0  0  0  0  0  0 11  0  0
   -1.5688   -0.2837   -1.8431 H   0  0  0  0  0  0  0  0  0 12  0  0
  4  1  1  0
  5  3  2  0
  5  1  1  0
  6  5  1  0
  6  1  1  0
  7  4  1  0
  1  8  1  6
  9  2  1  0
 10  4  1  0
 11  2  1  0
 12  4  1  0
M  END
