
     RDKit          3D

 12 10  0  0  0  0  0  0  0  0999 V2000
    0.0060   -0.2041   -0.5631 C   0  0  0  0  0  0  0  0  0  1  0  0
    0.6563   -0.9311    0.1675 O   0  0  0  0  0  0  0  0  0  2  0  0
    0.7360    0.0069    3.0035 O   0  0  0  0  0  0  0  0  0  3  0  0
   -0.2879   -0.5035   -1.9948 C   0  0  0  0  0  0  0  0  0  4  0  0
   -0.5494    1.1064    0.0171 C   0  0  0  0  0  0  0  0  0  5  0  0
   -1.2039    1.8766   -0.6440 O   0  0  0  0  0  0  0  0  0  6  0  0
    0.1259    0.2801   -2.6309 H   0  0  0  0  0  0  0  0  0  7  0  0
    1.1865   -0.4251    3.7357 H   0  0  0  0  0  0  0  0  0  8  0  0
   -0.3068    1.2882    1.0791 H   0  0  0  0  0  0  0  0  0  9  0  0
    0.1268   -1.4653   -2.2770 H   0  0  0  0  0  0  0  0  0 10  0  0
    0.8997   -0.5611    2.2362 H   0  0  0  0  0  0  0  0  0 11  0  0
   -1.3636   -0.4895   -2.1709 H   0  0  0  0  0  0  0  0  0 12  0  0
  2  1  2  0
  4  1  1  0
  5  1  1  0
  6  5  2  0
  7  4  1  0
  8  3  1  0
  9  5  1  0
 10  4  1  0
 11  3  1  0
 12  4  1  0
M  END
