
     RDKit          3D

 12 10  0  0  0  0  0  0  0  0999 V2000
   -0.5053    0.4369   -1.8809 C   0  0  0  0  0  0  0  0  0  1  0  0
   -0.8440   -0.7261   -1.8485 O   0  0  0  0  0  0  0  0  0  2  0  0
    0.2224    1.3493    1.7626 O   0  0  0  0  0  0  0  0  0  3  0  0
   -0.0803    0.1693    1.1070 C   0  0  0  0  0  0  0  0  0  4  0  0
    0.8895   -0.6965    0.8006 C   0  0  0  0  0  0  0  0  0  5  0  0
    0.7657   -1.8509    0.0991 O   0  0  0  0  0  0  0  0  0  6  0  0
   -1.2202    1.2614   -1.6907 H   0  0  0  0  0  0  0  0  0  7  0  0
    0.5297    0.7414   -2.1304 H   0  0  0  0  0  0  0  0  0  8  0  0
   -0.4739    1.5236    2.4042 H   0  0  0  0  0  0  0  0  0  9  0  0
   -1.1214    0.0198    0.8444 H   0  0  0  0  0  0  0  0  0 10  0  0
    1.9008   -0.5204    1.1478 H   0  0  0  0  0  0  0  0  0 11  0  0
   -0.0108   -1.7742   -0.4846 H   0  0  0  0  0  0  0  0  0 12  0  0
  2  1  2  0
  4  3  1  0
  5  4  2  0
  6  5  1  0
  7  1  1  0
  8  1  1  0
  9  3  1  0
 10  4  1  0
 11  5  1  0
 12  6  1  0
M  END
