
     RDKit          3D

 12 10  0  0  0  0  0  0  0  0999 V2000
    0.0507    0.4818   -0.4238 C   0  0  0  0  0  0  0  0  0  1  0  0
    0.2902    0.2374    2.7808 O   0  0  0  0  0  0  0  0  0  2  0  0
    0.0488   -1.6776   -1.5193 O   0  0  0  0  0  0  0  0  0  3  0  0
   -0.2492    1.2122   -1.4934 C   0  0  0  0  0  0  0  0  0  4  0  0
   -0.0411   -0.9912   -0.3564 C   0  0  0  0  0  0  0  0  0  5  0  0
   -0.1914   -1.6061    0.6789 O   0  0  0  0  0  0  0  0  0  6  0  0
    0.0864   -0.5553    2.2507 H   0  0  0  0  0  0  0  0  0  7  0  0
    0.3339    0.9575    0.5073 H   0  0  0  0  0  0  0  0  0  8  0  0
    0.2746   -1.0748   -2.2410 H   0  0  0  0  0  0  0  0  0  9  0  0
   -0.6218    0.7808   -2.4170 H   0  0  0  0  0  0  0  0  0 10  0  0
    0.2191   -0.0495    3.6956 H   0  0  0  0  0  0  0  0  0 11  0  0
   -0.1745    2.2915   -1.4735 H   0  0  0  0  0  0  0  0  0 12  0  0
  4  1  2  0
  5  3  1  0
  5  1  1  0
  6  5  2  0
  7  2  1  0
  8  1  1  0
  9  3  1  0
 10  4  1  0
 11  2  1  0
 12  4  1  0
M  END
