
     RDKit          3D

 12 10  0  0  0  0  0  0  0  0999 V2000
   -1.4294   -2.5045    0.8055 C   0  0  0  0  0  3  0  0  0  1  0  0
   -0.7438   -2.1579    1.6392 O   0  0  0  0  0  3  0  0  0  2  0  0
    0.2587    0.9306    1.2288 O   0  0  0  0  0  0  0  0  0  3  0  0
    0.9969    0.0287   -0.9048 C   0  0  0  0  0  0  0  0  0  4  0  0
    0.0590    0.9543   -0.1685 C   0  0  0  0  0  0  0  0  0  5  0  0
   -1.2658    0.5740   -0.5102 O   0  0  0  0  0  0  0  0  0  6  0  0
   -1.8564    1.1250    0.0202 H   0  0  0  0  0  0  0  0  0  7  0  0
    0.8088   -1.0023   -0.6066 H   0  0  0  0  0  0  0  0  0  8  0  0
    0.1615    0.0128    1.5188 H   0  0  0  0  0  0  0  0  0  9  0  0
    2.0301    0.2772   -0.6712 H   0  0  0  0  0  0  0  0  0 10  0  0
    0.2290    1.9980   -0.4526 H   0  0  0  0  0  0  0  0  0 11  0  0
    0.8468    0.1032   -1.9805 H   0  0  0  0  0  0  0  0  0 12  0  0
  2  1  3  0
  5  4  1  0
  5  3  1  0
  6  5  1  0
  7  6  1  0
  8  4  1  0
  9  3  1  0
 10  4  1  0
 11  5  1  0
 12  4  1  0
M  CHG  2   1  -1   2   1
M  END
