
     RDKit          3D

 12 11  0  0  0  0  0  0  0  0999 V2000
    0.0597   -1.5556    0.0465 C   0  0  0  0  0  0  0  0  0  1  0  0
   -0.2955   -1.6257    1.2046 O   0  0  0  0  0  0  0  0  0  2  0  0
    0.1413    1.1417    1.2987 O   0  0  0  0  0  0  0  0  0  3  0  0
    0.6199   -0.3225   -0.5962 C   0  0  0  0  0  0  0  0  0  4  0  0
    0.0034    0.9716   -0.0809 C   0  0  0  0  0  0  0  0  0  5  0  0
   -1.3524    0.9479   -0.4959 O   0  0  0  0  0  0  0  0  0  6  0  0
   -1.7964    1.6679   -0.0281 H   0  0  0  0  0  0  0  0  0  7  0  0
   -0.0063   -2.4523   -0.6000 H   0  0  0  0  0  0  0  0  0  8  0  0
   -0.1120    0.2924    1.7042 H   0  0  0  0  0  0  0  0  0  9  0  0
    1.6951   -0.3091   -0.3986 H   0  0  0  0  0  0  0  0  0 10  0  0
    0.5126    1.8274   -0.5348 H   0  0  0  0  0  0  0  0  0 11  0  0
    0.4939   -0.3886   -1.6766 H   0  0  0  0  0  0  0  0  0 12  0  0
  2  1  2  0
  4  1  1  0
  5  4  1  0
  5  3  1  0
  6  5  1  0
  7  6  1  0
  8  1  1  0
  9  3  1  0
 10  4  1  0
 11  5  1  0
 12  4  1  0
M  END
