
     RDKit          3D

 12  9  0  0  0  0  0  0  0  0999 V2000
   -0.1466   -1.3892    0.0325 C   0  0  0  0  0  0  0  0  0  1  0  0
   -0.8540   -1.1238    0.9835 O   0  0  0  0  0  0  0  0  0  2  0  0
   -0.0230    1.2492    2.1798 O   0  0  0  0  0  0  0  0  0  3  0  0
    0.9542   -0.5354   -0.4878 C   0  0  0  0  0  0  0  0  0  4  0  0
   -1.5217    1.5072   -2.1974 C   0  0  0  0  0  3  0  0  0  5  0  0
   -0.6336    1.8060   -2.8355 O   0  0  0  0  0  3  0  0  0  6  0  0
   -0.5356    1.5384    2.9396 H   0  0  0  0  0  0  0  0  0  7  0  0
   -0.3076   -2.3456   -0.5082 H   0  0  0  0  0  0  0  0  0  8  0  0
   -0.4458    0.4161    1.8989 H   0  0  0  0  0  0  0  0  0  9  0  0
    1.0237    0.3963    0.0654 H   0  0  0  0  0  0  0  0  0 10  0  0
    0.7938   -0.3336   -1.5473 H   0  0  0  0  0  0  0  0  0 11  0  0
    1.8975   -1.0801   -0.4197 H   0  0  0  0  0  0  0  0  0 12  0  0
  2  1  2  0
  4  1  1  0
  6  5  3  0
  7  3  1  0
  8  1  1  0
  9  3  1  0
 10  4  1  0
 11  4  1  0
 12  4  1  0
M  CHG  2   5  -1   6   1
M  END
