
     RDKit          3D

 12 11  0  0  0  0  0  0  0  0999 V2000
    0.2406   -0.2306   -0.0088 C   0  0  0  0  0  0  0  0  0  1  0  0
    1.3818   -1.0022    0.3075 O   0  0  0  0  0  0  0  0  0  2  0  0
    0.2953    0.5711    2.2149 O   0  0  0  0  0  0  0  0  0  3  0  0
   -0.3271   -0.4084   -1.3658 C   0  0  0  0  0  0  0  0  0  4  0  0
   -0.2547    0.5182    0.9820 C   0  0  0  0  0  0  0  0  0  5  0  0
   -1.3474    1.3252    0.9409 O   0  0  0  0  0  0  0  0  0  6  0  0
    0.3517   -0.0469   -2.1456 H   0  0  0  0  0  0  0  0  0  7  0  0
   -1.7288    1.3167    0.0570 H   0  0  0  0  0  0  0  0  0  8  0  0
    1.0344   -0.0575    2.2094 H   0  0  0  0  0  0  0  0  0  9  0  0
   -0.5235   -1.4634   -1.5712 H   0  0  0  0  0  0  0  0  0 10  0  0
    2.1396   -0.6234   -0.1569 H   0  0  0  0  0  0  0  0  0 11  0  0
   -1.2725    0.1216   -1.4946 H   0  0  0  0  0  0  0  0  0 12  0  0
  2  1  1  0
  4  1  1  0
  5  3  1  0
  5  1  2  0
  6  5  1  0
  7  4  1  0
  8  6  1  0
  9  3  1  0
 10  4  1  0
 11  2  1  0
 12  4  1  0
M  END
