
     RDKit          3D

 12 11  0  0  0  0  0  0  0  0999 V2000
   -0.0778   -0.5339    0.1808 C   0  0  2  0  0  0  0  0  0  1  0  0
    0.8642   -1.5782    0.2119 O   0  0  0  0  0  0  0  0  0  2  0  0
    1.5884    0.7022    1.3788 O   0  0  0  0  0  0  0  0  0  3  0  0
   -0.4239   -0.1543   -1.2559 C   0  0  0  0  0  0  0  0  0  4  0  0
    0.4586    0.6623    0.9592 C   0  0  0  0  0  0  0  0  0  5  0  0
   -0.3891    1.6924    1.1694 O   0  0  0  0  0  0  0  0  0  6  0  0
    0.4560    0.2266   -1.7701 H   0  0  0  0  0  0  0  0  0  7  0  0
   -1.2470    1.5058    0.7602 H   0  0  0  0  0  0  0  0  0  8  0  0
   -0.9979   -0.8680    0.6837 H   0  0  0  0  0  0  0  0  0  9  0  0
   -0.7739   -1.0348   -1.7877 H   0  0  0  0  0  0  0  0  0 10  0  0
    1.6484   -1.2358    0.6728 H   0  0  0  0  0  0  0  0  0 11  0  0
   -1.2098    0.6003   -1.3046 H   0  0  0  0  0  0  0  0  0 12  0  0
  2  1  1  0
  4  1  1  0
  5  3  2  0
  5  1  1  0
  6  5  1  0
  7  4  1  0
  8  6  1  0
  1  9  1  1
 10  4  1  0
 11  2  1  0
 12  4  1  0
M  END
