
     RDKit          3D

 12 10  0  0  0  0  0  0  0  0999 V2000
    0.5513   -0.3940   -0.3415 C   0  0  0  0  0  3  0  0  0  1  0  0
    1.0746   -1.5189    0.0495 O   0  0  0  0  0  3  0  0  0  2  0  0
   -0.4657    1.5735    1.3226 O   0  0  0  0  0  0  0  0  0  3  0  0
    0.4909   -0.2183   -1.8046 C   0  0  0  0  0  0  0  0  0  4  0  0
   -1.2068    0.9232    2.2054 C   0  0  0  0  0  0  0  0  0  5  0  0
   -1.8403    1.4422    3.0929 O   0  0  0  0  0  0  0  0  0  6  0  0
    0.7285    0.8152   -2.0532 H   0  0  0  0  0  0  0  0  0  7  0  0
   -1.2001   -0.1746    2.0576 H   0  0  0  0  0  0  0  0  0  8  0  0
   -0.0460    0.8694    0.6824 H   0  0  0  0  0  0  0  0  0  9  0  0
    1.1216   -0.9008   -2.3859 H   0  0  0  0  0  0  0  0  0 10  0  0
    1.3795   -2.0860   -0.7022 H   0  0  0  0  0  0  0  0  0 11  0  0
   -0.5553   -0.3724   -2.0905 H   0  0  0  0  0  0  0  0  0 12  0  0
  2  1  2  0
  4  1  1  0
  5  3  1  0
  6  5  2  0
  7  4  1  0
  8  5  1  0
  9  3  1  0
 10  4  1  0
 11  2  1  0
 12  4  1  0
M  CHG  2   1  -1   2   1
M  END
