
     RDKit          3D

 12 11  0  0  0  0  0  0  0  0999 V2000
    0.0055    0.0398   -0.6455 C   0  0  0  0  0  0  0  0  0  1  0  0
   -0.6251    1.0610   -0.8326 O   0  0  0  0  0  0  0  0  0  2  0  0
   -1.2039    0.5691    1.9818 O   0  0  0  0  0  0  0  0  0  3  0  0
    0.3689   -0.9534   -1.7031 C   0  0  0  0  0  0  0  0  0  4  0  0
    0.1412    0.5564    1.6557 C   0  0  0  0  0  0  0  0  0  5  0  0
    0.4509   -0.3507    0.5711 O   0  0  0  0  0  0  0  0  0  6  0  0
    1.3597   -1.3653   -1.5360 H   0  0  0  0  0  0  0  0  0  7  0  0
    0.5164    1.5426    1.3812 H   0  0  0  0  0  0  0  0  0  8  0  0
   -1.6625    1.0384    1.2690 H   0  0  0  0  0  0  0  0  0  9  0  0
   -0.3424   -1.7785   -1.6712 H   0  0  0  0  0  0  0  0  0 10  0  0
    0.6854    0.1510    2.5020 H   0  0  0  0  0  0  0  0  0 11  0  0
    0.3059   -0.4824   -2.6773 H   0  0  0  0  0  0  0  0  0 12  0  0
  2  1  2  0
  4  1  1  0
  5  3  1  0
  6  5  1  0
  6  1  1  0
  7  4  1  0
  8  5  1  0
  9  3  1  0
 10  4  1  0
 11  5  1  0
 12  4  1  0
M  END
