
     RDKit          3D

 12 10  0  0  0  0  0  0  0  0999 V2000
   -1.6005   -2.3925    0.8352 C   0  0  0  0  0  3  0  0  0  1  0  0
   -0.8227   -2.1447    1.6218 O   0  0  0  0  0  3  0  0  0  2  0  0
    0.3362    0.9080    1.2278 O   0  0  0  0  0  0  0  0  0  3  0  0
    0.9796   -0.0367   -0.9184 C   0  0  0  0  0  0  0  0  0  4  0  0
    0.1186    0.9492   -0.1666 C   0  0  0  0  0  0  0  0  0  5  0  0
   -1.2343    0.6632   -0.4893 O   0  0  0  0  0  0  0  0  0  6  0  0
   -1.7768    1.2537    0.0500 H   0  0  0  0  0  0  0  0  0  7  0  0
    0.7251   -1.0535   -0.6207 H   0  0  0  0  0  0  0  0  0  8  0  0
    0.1814   -0.0019    1.5172 H   0  0  0  0  0  0  0  0  0  9  0  0
    2.0307    0.1391   -0.6988 H   0  0  0  0  0  0  0  0  0 10  0  0
    0.3571    1.9793   -0.4513 H   0  0  0  0  0  0  0  0  0 11  0  0
    0.8196    0.0524   -1.9916 H   0  0  0  0  0  0  0  0  0 12  0  0
  2  1  3  0
  5  4  1  0
  5  3  1  0
  6  5  1  0
  7  6  1  0
  8  4  1  0
  9  3  1  0
 10  4  1  0
 11  5  1  0
 12  4  1  0
M  CHG  2   1  -1   2   1
M  END
