
     RDKit          3D

 16 14  0  0  0  0  0  0  0  0999 V2000
   -3.2976    0.2189   -0.2931 O   0  0  0  0  0  0  0  0  0  1  0  0
   -2.2847    0.7737    0.0997 C   0  0  0  0  0  0  0  0  0  2  0  0
   -1.0773   -0.0057    0.3699 C   0  0  0  0  0  0  0  0  0  3  0  0
   -1.1972   -1.3259    0.1278 O   0  0  0  0  0  0  0  0  0  4  0  0
    0.0543    0.5828    0.7850 C   0  0  0  0  0  0  0  0  0  5  0  0
    0.8304   -0.2786   -2.4641 O   0  0  0  0  0  0  0  0  0  6  0  0
    1.3327   -0.1322    0.9968 C   0  0  0  0  0  0  0  0  0  7  0  0
    2.2835    0.3807    0.0480 O   0  0  0  0  0  0  0  0  0  8  0  0
   -2.2339    1.8615    0.2596 H   0  0  0  0  0  0  0  0  0  9  0  0
    0.3547   -1.0274   -2.0921 H   0  0  0  0  0  0  0  0  0 10  0  0
   -2.1247   -1.4356   -0.1652 H   0  0  0  0  0  0  0  0  0 11  0  0
    0.0403    1.6570    0.9341 H   0  0  0  0  0  0  0  0  0 12  0  0
    1.4197   -0.0039   -1.7478 H   0  0  0  0  0  0  0  0  0 13  0  0
    1.1856   -1.2046    0.8482 H   0  0  0  0  0  0  0  0  0 14  0  0
    1.6985    0.0321    2.0180 H   0  0  0  0  0  0  0  0  0 15  0  0
    3.1316   -0.0581    0.1954 H   0  0  0  0  0  0  0  0  0 16  0  0
  2  1  2  0
  3  2  1  0
  4  3  1  0
  5  3  2  0
  7  5  1  0
  8  7  1  0
  9  2  1  0
 10  6  1  0
 11  4  1  0
 12  5  1  0
 13  6  1  0
 14  7  1  0
 15  7  1  0
 16  8  1  0
M  END
