
     RDKit          3D

 16 14  0  0  0  0  0  0  0  0999 V2000
   -3.1362    0.4441   -0.1622 O   0  0  0  0  0  3  0  0  0  1  0  0
   -2.5211   -0.0824   -1.1879 C   0  0  0  0  0  3  0  0  0  2  0  0
   -0.7376   -0.5683    0.4022 C   0  0  0  0  0  0  0  0  0  3  0  0
   -1.3745   -0.9116    1.3639 O   0  0  0  0  0  0  0  0  0  4  0  0
    0.4739    0.3204    0.3814 C   0  0  2  0  0  0  0  0  0  5  0  0
    0.4498    1.0581   -0.8296 O   0  0  0  0  0  0  0  0  0  6  0  0
    1.7532   -0.5030    0.4462 C   0  0  0  0  0  0  0  0  0  7  0  0
    2.8179    0.4249    0.2305 O   0  0  0  0  0  0  0  0  0  8  0  0
   -2.1612    0.7954   -1.7916 H   0  0  0  0  0  0  0  0  0  9  0  0
   -1.2601   -0.7724   -0.6977 H   0  0  0  0  0  0  0  0  0 10  0  0
   -3.2950   -0.2248    0.5323 H   0  0  0  0  0  0  0  0  0 11  0  0
    0.3964    0.9851    1.2496 H   0  0  0  0  0  0  0  0  0 12  0  0
    1.3721    1.2926   -1.0115 H   0  0  0  0  0  0  0  0  0 13  0  0
    1.7159   -1.2587   -0.3444 H   0  0  0  0  0  0  0  0  0 14  0  0
    1.8426   -1.0064    1.4111 H   0  0  0  0  0  0  0  0  0 15  0  0
    3.6245   -0.0622    0.0306 H   0  0  0  0  0  0  0  0  0 16  0  0
  2  1  2  0
  4  3  2  0
  5  3  1  0
  6  5  1  0
  7  5  1  0
  8  7  1  0
  9  2  1  0
 10  3  1  0
 11  1  1  0
  5 12  1  1
 13  6  1  0
 14  7  1  0
 15  7  1  0
 16  8  1  0
M  CHG  2   1   1   2  -1
M  END
