
     RDKit          3D

 16 13  0  0  0  0  0  0  0  0999 V2000
   -3.5309   -0.0714   -0.6166 O   0  0  0  0  0  3  0  0  0  1  0  0
   -2.2629    0.2004   -0.5021 C   0  0  0  0  0  3  0  0  0  2  0  0
   -2.1685   -1.2677    1.8096 C   0  0  0  0  0  3  0  0  0  3  0  0
   -3.2699   -1.5725    1.7195 O   0  0  0  0  0  3  0  0  0  4  0  0
    0.8589    0.6683    0.0923 C   0  0  0  0  0  0  0  0  0  5  0  0
    0.9544    1.4677   -1.0834 O   0  0  0  0  0  0  0  0  0  6  0  0
    1.9026   -0.4177    0.0629 C   0  0  0  0  0  0  0  0  0  7  0  0
    3.1738    0.2378   -0.0496 O   0  0  0  0  0  0  0  0  0  8  0  0
   -2.0352    0.8694   -1.3591 H   0  0  0  0  0  0  0  0  0  9  0  0
   -0.1556    0.2532    0.1021 H   0  0  0  0  0  0  0  0  0 10  0  0
   -3.7850   -0.6567    0.1316 H   0  0  0  0  0  0  0  0  0 11  0  0
    0.9898    1.2836    0.9908 H   0  0  0  0  0  0  0  0  0 12  0  0
    1.8962    1.6740   -1.1781 H   0  0  0  0  0  0  0  0  0 13  0  0
    1.7195   -1.0692   -0.7981 H   0  0  0  0  0  0  0  0  0 14  0  0
    1.8591   -1.0224    0.9744 H   0  0  0  0  0  0  0  0  0 15  0  0
    3.8411   -0.4194   -0.2703 H   0  0  0  0  0  0  0  0  0 16  0  0
  2  1  2  0
  4  3  3  0
  6  5  1  0
  7  5  1  0
  8  7  1  0
  9  2  1  0
 10  5  1  0
 11  1  1  0
 12  5  1  0
 13  6  1  0
 14  7  1  0
 15  7  1  0
 16  8  1  0
M  CHG  4   1   1   2  -1   3  -1   4   1
M  END
