
     RDKit          3D

 16 15  0  0  0  0  0  0  0  0999 V2000
   -3.1340    0.5772    0.0217 O   0  0  0  0  0  0  0  0  0  1  0  0
   -2.1329    0.3939   -0.6396 C   0  0  0  0  0  0  0  0  0  2  0  0
   -1.0016   -0.4549   -0.1000 C   0  0  2  0  0  0  0  0  0  3  0  0
   -1.3536   -0.9758    1.1549 O   0  0  0  0  0  0  0  0  0  4  0  0
    0.2860    0.3695   -0.0150 C   0  0  2  0  0  0  0  0  0  5  0  0
    0.5398    0.8900   -1.3110 O   0  0  0  0  0  0  0  0  0  6  0  0
    1.4725   -0.4490    0.4545 C   0  0  0  0  0  0  0  0  0  7  0  0
    2.5944    0.4375    0.4163 O   0  0  0  0  0  0  0  0  0  8  0  0
   -2.0024    0.8355   -1.6378 H   0  0  0  0  0  0  0  0  0  9  0  0
   -0.8301   -1.2657   -0.8253 H   0  0  0  0  0  0  0  0  0 10  0  0
   -2.2488   -0.6332    1.3285 H   0  0  0  0  0  0  0  0  0 11  0  0
    0.1194    1.1802    0.7057 H   0  0  0  0  0  0  0  0  0 12  0  0
    1.4441    1.2308   -1.2783 H   0  0  0  0  0  0  0  0  0 13  0  0
    1.6165   -1.2893   -0.2319 H   0  0  0  0  0  0  0  0  0 14  0  0
    1.2933   -0.8325    1.4600 H   0  0  0  0  0  0  0  0  0 15  0  0
    3.4001   -0.0783    0.5199 H   0  0  0  0  0  0  0  0  0 16  0  0
  2  1  2  0
  3  2  1  0
  4  3  1  0
  5  3  1  0
  6  5  1  0
  7  5  1  0
  8  7  1  0
  9  2  1  0
  3 10  1  6
 11  4  1  0
  5 12  1  1
 13  6  1  0
 14  7  1  0
 15  7  1  0
 16  8  1  0
M  END
