
     RDKit          3D

 16 14  0  0  0  0  0  0  0  0999 V2000
    0.1207    0.6383   -1.8012 C   0  0  0  0  0  0  0  0  0  1  0  0
   -0.2590   -0.6439   -1.6841 C   0  0  0  0  0  0  0  0  0  2  0  0
    0.0470   -1.5962   -2.6231 O   0  0  0  0  0  0  0  0  0  3  0  0
   -1.0272   -1.1668   -0.6771 N   0  0  0  0  0  0  0  0  0  4  0  0
    0.8452    0.5545    1.9422 C   0  0  0  0  0  0  0  0  0  5  0  0
   -0.6141    0.4850    1.8887 N   0  0  0  0  0  0  0  0  0  6  0  0
   -0.1892    1.3770   -1.0806 H   0  0  0  0  0  0  0  0  0  7  0  0
    0.6862    0.9780   -2.6550 H   0  0  0  0  0  0  0  0  0  8  0  0
    0.5314   -1.1549   -3.3283 H   0  0  0  0  0  0  0  0  0  9  0  0
   -0.9972   -0.6253    0.1870 H   0  0  0  0  0  0  0  0  0 10  0  0
   -0.8856   -2.1513   -0.5295 H   0  0  0  0  0  0  0  0  0 11  0  0
    1.2589    1.1132    2.7915 H   0  0  0  0  0  0  0  0  0 12  0  0
    1.2506   -0.4558    1.9788 H   0  0  0  0  0  0  0  0  0 13  0  0
    1.2137    1.0066    1.0228 H   0  0  0  0  0  0  0  0  0 14  0  0
   -0.9878    0.0908    2.7425 H   0  0  0  0  0  0  0  0  0 15  0  0
   -1.0105    1.4126    1.8125 H   0  0  0  0  0  0  0  0  0 16  0  0
  2  1  2  0
  3  2  1  0
  4  2  1  0
  6  5  1  0
  7  1  1  0
  8  1  1  0
  9  3  1  0
 10  4  1  0
 11  4  1  0
 12  5  1  0
 13  5  1  0
 14  5  1  0
 15  6  1  0
 16  6  1  0
M  END
