
     RDKit          3D

 16 14  0  0  0  0  0  0  0  0999 V2000
    0.1855    0.3722   -1.9913 C   0  0  0  0  0  0  0  0  0  1  0  0
   -0.3230   -1.0500   -1.8852 C   0  0  0  0  0  0  0  0  0  2  0  0
   -0.4678   -1.7554   -2.8759 O   0  0  0  0  0  0  0  0  0  3  0  0
   -0.5565   -1.4941   -0.6244 N   0  0  0  0  0  0  0  0  0  4  0  0
    0.8278    0.7617    1.9897 C   0  0  0  0  0  0  0  0  0  5  0  0
   -0.5825    0.4917    1.7163 N   0  0  0  0  0  0  0  0  0  6  0  0
   -0.1450    1.0035   -1.1675 H   0  0  0  0  0  0  0  0  0  7  0  0
    1.2759    0.3620   -1.9974 H   0  0  0  0  0  0  0  0  0  8  0  0
   -0.1428    0.7943   -2.9364 H   0  0  0  0  0  0  0  0  0  9  0  0
   -0.6113   -0.8571    0.1682 H   0  0  0  0  0  0  0  0  0 10  0  0
   -0.9782   -2.4017   -0.5366 H   0  0  0  0  0  0  0  0  0 11  0  0
    1.0160    1.4484    2.8227 H   0  0  0  0  0  0  0  0  0 12  0  0
    1.3372   -0.1763    2.2039 H   0  0  0  0  0  0  0  0  0 13  0  0
    1.2932    1.1752    1.0978 H   0  0  0  0  0  0  0  0  0 14  0  0
   -1.0391    0.1162    2.5371 H   0  0  0  0  0  0  0  0  0 15  0  0
   -1.0725    1.3477    1.4920 H   0  0  0  0  0  0  0  0  0 16  0  0
  2  1  1  0
  3  2  2  0
  4  2  1  0
  6  5  1  0
  7  1  1  0
  8  1  1  0
  9  1  1  0
 10  4  1  0
 11  4  1  0
 12  5  1  0
 13  5  1  0
 14  5  1  0
 15  6  1  0
 16  6  1  0
M  END
