
     RDKit          3D

 16 15  0  0  0  0  0  0  0  0999 V2000
    1.5042   -0.7573   -0.8503 C   0  0  0  0  0  0  0  0  0  1  0  0
    0.2676    0.0494   -0.4983 C   0  0  1  0  0  0  0  0  0  2  0  0
    0.4152    1.3928   -0.9382 O   0  0  0  0  0  0  0  0  0  3  0  0
   -0.8646   -0.4645   -1.2544 N   0  0  0  0  0  0  0  0  0  4  0  0
   -1.1130    0.6109    1.4729 C   0  0  0  0  0  0  0  0  0  5  0  0
    0.1340    0.0675    0.9619 N   0  0  0  0  0  0  0  0  0  6  0  0
    2.3693   -0.3891   -0.3004 H   0  0  0  0  0  0  0  0  0  7  0  0
    1.3544   -1.8089   -0.6015 H   0  0  0  0  0  0  0  0  0  8  0  0
    1.6921   -0.6824   -1.9169 H   0  0  0  0  0  0  0  0  0  9  0  0
   -1.1135   -1.3873   -0.9185 H   0  0  0  0  0  0  0  0  0 10  0  0
   -1.6675    0.1405   -1.1255 H   0  0  0  0  0  0  0  0  0 11  0  0
   -1.9974   -0.0081    1.2673 H   0  0  0  0  0  0  0  0  0 12  0  0
   -1.0377    0.7360    2.5520 H   0  0  0  0  0  0  0  0  0 13  0  0
   -1.2877    1.5945    1.0423 H   0  0  0  0  0  0  0  0  0 14  0  0
    0.2920   -0.8651    1.3225 H   0  0  0  0  0  0  0  0  0 15  0  0
    1.0517    1.8022   -0.3374 H   0  0  0  0  0  0  0  0  0 16  0  0
  2  1  1  0
  2  3  1  6
  4  2  1  0
  6  5  1  0
  6  2  1  0
  7  1  1  0
  8  1  1  0
  9  1  1  0
 10  4  1  0
 11  4  1  0
 12  5  1  0
 13  5  1  0
 14  5  1  0
 15  6  1  0
 16  3  1  0
M  END
